
**** 11/22/16 14:04:28 ***** PSpice 16.6.0 (October 2012) ***** ID# 0 ********

  ***** MCNUTT - HEFNER SiC POWER MOSFET MODEL *****


 ****     CIRCUIT DESCRIPTION


******************************************************************************




 ***** DYNAMIC SIMULATION CIRCUIT *****

XDUT D G 0 Tj SiCMOS

* Gate Circuit
Rg G1 G 10
Lg G1 G2 1e-09

* Gate Pulse
Vgs G2 0 PULSE(-5 20 1us 10ns 10ns 4us 8us)

* DC Bus Voltage
Vd D3 0 800

* Junction Temperature
VTj Tj 0 300

* Load Current
Id D3 D 20

* Freewheeling Diode
Df D D3 dmod

.MODEL dmod D(Is=1e-10)

RGSENSE G 0 10E12

RDSENSE D 0 10E12

.OPTIONS ABSTOL=1e-3 CHGTOL=0.01e-12 GMIN=1e-12 ITL1=1500 ITL2=2000 ITL4=1000 RELTOL= 0.005 VNTOL=1e-3

.TRAN 0ns 6us 0ns 1n

.PRINT TRAN I(Rg) I(XDUT.VSENSE) V(RGSENSE) V(RDSENSE)

.PROBE I(Vd) V(RDSENSE) V(RGSENSE)


.SUBCKT SiCMOS D G S Tj


 ***** ON-STATE RESISTANCE MODEL *****


.param A = {0.15387}
* device active area [cm^2]
.param Nb = {3207361500000000}
* drift region dopant density [cm^-3]
.param q = 1.6e-19
* foundamental electronic charge [C]
.param Rs = {0.0015229}
* drain series resistance [ohm]
.param eps_semi = {9.66*8.854e-14}
* SiC dielectric constant [F/cm]
.param k = 1.38e-23
* Boltzmann´s constant
.param Wb = {0.002}
* metallurgical drift region width [cm]

* intrinsic carrier concentration
Eni 3 0 value = { LIMIT(4.81E15*PWR(v(Tj),1.5)*exp(-18567/v(Tj)),0,1E11)}
REni 3 0 1E10

* built-in junction potential
EVbi 2 0 value = { LIMIT(k*v(Tj)/q*LOG(1E16*Nb/PWR(v(3),2)),0,100)}
RVbi 2 0 1E12

* quasineutral drift region width (W=Wb-Wdsj) [cm]
EW 1 0 value = { LIMIT(Wb-SQRT(2*eps_semi*(v(D)+v(2))/q/Nb),0,1E-3)}
RW 1 0 1E12

* bulk electron mobility
Eun 4 0 value = { LIMIT(947/(1+PWR(Nb/1.94e17,0.61))*PWR(v(Tj)/300,-2.15),0,1E3)}
Run 4 0 1E12

ERb 5 0 value = {LIMIT(Rs + v(1)/(q*A*Nb*v(4)),0,1)}

ERon D D2 value = {I(VSENSE)*v(5)}
VSENSE D2 D1 0V




 ***** CAPACITANCES MODEL *****

.param Agd = 0.015387
* gate-drain overlap area [cm^-2]
.param Vtd = 10
* gate-drain overlap depletion threshold
.param Coxd = 1.79e-10
* gate-drain overlap oxide capacitance
.param Cgs = 1.0886e-09
* gate-source capacitance
.param Fxjbe = 0.5
* gate-drain overlap depletion charge factor at edge
.param Fxjbm = 0.75
* gate-drain overlap depletion charge factor at middle

* gate-drain overlap inversion treshold voltage
EVtdi 6 0 value = {Vtd-v(2)-Fxjbm*Agd/Coxd*SQRT(2*eps_semi*q*Nb*(v(2)+v(D1)))}
RVtdi 6 0 1E12
EVtdiedge 8 0 value = {Vtd-v(2)-Fxjbe*Agd/Coxd*SQRT(2*eps_semi*q*Nb*(v(2)+v(D1)))}
RVtdiedge 8 0 1E12

* GATE-SOURCE CAPACITANCE
Cgs G S 1.0886e-09

* gate-drain depletion capacitance
ECgdj 7 0 value = { LIMIT(Agd*eps_semi/SQRT(2*eps_semi*(v(D1,G)+Vtd)/q/Nb),0,2n) }
RCgdj 7 0 1E12

* GATE-DRAIN CAPACITANCE
GCgd D1 G value={ LIMIT(IF(v(G)-Vtd>=V(D1), Coxd*DDT(v(D1,G)),
+ Coxd*v(7)/(Coxd+v(7))*DDT(v(D1,G))),-10,10) }

* drain-source junction capacitance
ECdsj 9 0 value = { LIMIT((A-Agd)*eps_semi/SQRT(2*eps_semi*(v(D1)+v(2))/q/Nb),0,10n) }
RCdsj 9 0 1E12

* DRAIN-SOURCE CAPACITANCE
GCds D1 S value={ LIMIT(v(9)*DDT(v(D1)),-10,10)}




 **** MOSFET CURRENT MODEL ****

.param Kfl = {0.013787}     
* low current transconductance factor
.param theta = 0
* transverse electric field parameter
.param Kp = {1.8246}
* saturation region transconductance
.param Kf = {2} 
* linear transconductance factor
.param Vtr = {4.1447}
* threshold voltage
.param dVtl = 0
* low current treshold voltage differential
.param Vth = {Vtr+Kfl/(1-Kfl)*dVtl}    
* high current voltage threshold
.param Vtl = {Vtr-dVtl}                           
* low current voltage threshold
.param Pvf = {0.6}
* pinch-off voltage factor
.param y = {Kf/(Kf-Pvf/2)}

* low threshold current
GIMOSL D1 S  value = { IF(v(D1)<=(v(G)-Vtl)/Pvf, 
+       Kfl*Kf*Kp*((v(G)-Vtl)*v(D1)-PWR(Pvf,(y-1))*PWR(v(D1),y)*PWR((v(G)-Vtl),(2-y))/y)
+       /(1+theta*(v(G)-Vtl)),
+       Kfl*Kp*PWR((v(G)-Vtl),2)/2/(1+theta*(v(G)-Vtl))) }

* high threshold current
GIMOSH D1 S  value = { IF(v(D1)<=(v(G)-Vth)/Pvf, 
+       (1.0-Kfl)*Kf*Kp*((v(G)-Vth)*v(D1)-1/y*PWR(Pvf,(y-1))*PWR(v(D1),y)*PWR(v(G)-Vth,(2-y)))
+       /(1+theta*(v(G)-Vth)),
+       (1.0-Kfl)*Kp*PWR(v(G)-Vth,2)/2/(1+theta*(v(G)-Vth))) }

* below high threshold
GIMOSBHT D1 S  value = { IF(v(G)<= Vth, 
+       -(1.0-Kfl)*Kp*PWR(v(G)-Vth,2)/2/(1+theta*(v(G)-Vth)), 0 ) }

* below low threshold
GIMOSBLT D1 S  value = { IF(v(G)<= Vtl, 
+       -Kfl*Kp*PWR((v(G)-Vtl),2)/2/(1+theta*(v(G)-Vtl)), 0 ) }

.ends SiCMOS


.END

**** 11/22/16 14:04:28 ***** PSpice 16.6.0 (October 2012) ***** ID# 0 ********

  ***** MCNUTT - HEFNER SiC POWER MOSFET MODEL *****


 ****     Diode MODEL PARAMETERS


******************************************************************************




               dmod            
          IS  100.000000E-12 


WARNING(ORPSIM-16534): Using high values of ITL4 for Speed Level > 0 may increase total simulation job time.

**** 11/22/16 14:04:28 ***** PSpice 16.6.0 (October 2012) ***** ID# 0 ********

  ***** MCNUTT - HEFNER SiC POWER MOSFET MODEL *****


 ****     INITIAL TRANSIENT SOLUTION       TEMPERATURE =   27.000 DEG C


******************************************************************************



 NODE   VOLTAGE     NODE   VOLTAGE     NODE   VOLTAGE     NODE   VOLTAGE


(    D)  800.6700  (    G)   -5.0000  (   D3)  800.0000  (   G1)   -5.0000      

(   G2)   -5.0000  (   Tj)  300.0000  (XDUT.1) 363.5E-06 (XDUT.2)    2.7685     

(XDUT.3) 33.06E-09 (XDUT.4)  875.3300 (XDUT.5)     .0068 (XDUT.6)  -46.9120     

(XDUT.7) 7.981E-12 (XDUT.8)  -28.8640 (XDUT.9) 72.38E-12 (XDUT.D1)  800.6700    

(XDUT.D2)  800.6700                   




    VOLTAGE SOURCE CURRENTS
    NAME         CURRENT

    Vgs          8.062E-10
    Vd          -4.889E-09
    VTj          0.000E+00
    XDUT.VSENSE   4.889E-09

    TOTAL POWER DISSIPATION   3.92E-06  WATTS


**** 11/22/16 14:04:28 ***** PSpice 16.6.0 (October 2012) ***** ID# 0 ********

  ***** MCNUTT - HEFNER SiC POWER MOSFET MODEL *****


 ****     TRANSIENT ANALYSIS               TEMPERATURE =   27.000 DEG C


******************************************************************************



  TIME        I(Rg)       I(XDUT.VSENSE)V(RGSENSE)  V(RDSENSE)  

   0.000E+00  -8.062E-10   4.889E-09  -5.000E+00   8.007E+02
   1.000E-09  -8.786E-03   6.632E-05  -4.913E+00   8.007E+02
   2.000E-09  -8.015E-03   5.578E-05  -4.921E+00   8.007E+02
   3.000E-09  -7.302E-03   5.084E-05  -4.928E+00   8.007E+02
   4.000E-09  -6.664E-03   4.631E-05  -4.934E+00   8.007E+02
   5.000E-09  -6.074E-03   4.226E-05  -4.940E+00   8.007E+02
   6.000E-09  -5.542E-03   3.854E-05  -4.945E+00   8.007E+02
   7.000E-09  -5.053E-03   3.515E-05  -4.950E+00   8.007E+02
   8.000E-09  -4.609E-03   3.205E-05  -4.954E+00   8.007E+02
   9.000E-09  -4.203E-03   2.923E-05  -4.958E+00   8.007E+02
   1.000E-08  -3.833E-03   2.666E-05  -4.962E+00   8.007E+02
   1.100E-08  -3.495E-03   2.431E-05  -4.965E+00   8.007E+02
   1.200E-08  -3.188E-03   2.217E-05  -4.968E+00   8.007E+02
   1.300E-08  -2.907E-03   2.022E-05  -4.971E+00   8.007E+02
   1.400E-08  -2.651E-03   1.844E-05  -4.974E+00   8.007E+02
   1.500E-08  -2.418E-03   1.682E-05  -4.976E+00   8.007E+02
   1.600E-08  -2.205E-03   1.534E-05  -4.978E+00   8.007E+02
   1.700E-08  -2.011E-03   1.399E-05  -4.980E+00   8.007E+02
   1.800E-08  -1.834E-03   1.276E-05  -4.982E+00   8.007E+02
   1.900E-08  -1.673E-03   1.164E-05  -4.983E+00   8.007E+02
   2.000E-08  -1.525E-03   1.061E-05  -4.985E+00   8.007E+02
   2.100E-08  -1.391E-03   9.679E-06  -4.986E+00   8.007E+02
   2.200E-08  -1.269E-03   8.828E-06  -4.987E+00   8.007E+02
   2.300E-08  -1.157E-03   8.051E-06  -4.989E+00   8.007E+02
   2.400E-08  -1.055E-03   7.343E-06  -4.990E+00   8.007E+02
   2.500E-08  -9.623E-04   6.697E-06  -4.990E+00   8.007E+02
   2.600E-08  -8.776E-04   6.108E-06  -4.991E+00   8.007E+02
   2.700E-08  -8.004E-04   5.571E-06  -4.992E+00   8.007E+02
   2.800E-08  -7.299E-04   5.081E-06  -4.993E+00   8.007E+02
   2.900E-08  -6.657E-04   4.634E-06  -4.993E+00   8.007E+02
   3.000E-08  -6.071E-04   4.227E-06  -4.994E+00   8.007E+02
   3.100E-08  -5.537E-04   3.855E-06  -4.995E+00   8.007E+02
   3.200E-08  -5.049E-04   3.516E-06  -4.995E+00   8.007E+02
   3.300E-08  -4.605E-04   3.207E-06  -4.995E+00   8.007E+02
   3.400E-08  -4.200E-04   2.925E-06  -4.996E+00   8.007E+02
   3.500E-08  -3.830E-04   2.668E-06  -4.996E+00   8.007E+02
   3.600E-08  -3.493E-04   2.434E-06  -4.997E+00   8.007E+02
   3.700E-08  -3.185E-04   2.220E-06  -4.997E+00   8.007E+02
   3.800E-08  -2.905E-04   2.025E-06  -4.997E+00   8.007E+02
   3.900E-08  -2.649E-04   1.847E-06  -4.997E+00   8.007E+02
   4.000E-08  -2.416E-04   1.685E-06  -4.998E+00   8.007E+02
   4.100E-08  -2.203E-04   1.537E-06  -4.998E+00   8.007E+02
   4.200E-08  -2.010E-04   1.402E-06  -4.998E+00   8.007E+02
   4.300E-08  -1.833E-04   1.279E-06  -4.998E+00   8.007E+02
   4.400E-08  -1.671E-04   1.167E-06  -4.998E+00   8.007E+02
   4.500E-08  -1.524E-04   1.065E-06  -4.998E+00   8.007E+02
   4.600E-08  -1.390E-04   9.715E-07  -4.999E+00   8.007E+02
   4.700E-08  -1.268E-04   8.865E-07  -4.999E+00   8.007E+02
   4.800E-08  -1.156E-04   8.088E-07  -4.999E+00   8.007E+02
   4.900E-08  -1.054E-04   7.380E-07  -4.999E+00   8.007E+02
   5.000E-08  -9.616E-05   6.734E-07  -4.999E+00   8.007E+02
   5.100E-08  -8.769E-05   6.146E-07  -4.999E+00   8.007E+02
   5.200E-08  -7.998E-05   5.611E-07  -4.999E+00   8.007E+02
   5.300E-08  -7.294E-05   5.120E-07  -4.999E+00   8.007E+02
   5.400E-08  -6.652E-05   4.674E-07  -4.999E+00   8.007E+02
   5.500E-08  -6.066E-05   4.266E-07  -4.999E+00   8.007E+02
   5.600E-08  -5.532E-05   3.895E-07  -4.999E+00   8.007E+02
   5.700E-08  -5.045E-05   3.557E-07  -5.000E+00   8.007E+02
   5.800E-08  -4.601E-05   3.247E-07  -5.000E+00   8.007E+02
   5.900E-08  -4.196E-05   2.967E-07  -5.000E+00   8.007E+02
   6.000E-08  -3.827E-05   2.710E-07  -5.000E+00   8.007E+02
   6.100E-08  -3.490E-05   2.476E-07  -5.000E+00   8.007E+02
   6.200E-08  -3.183E-05   2.262E-07  -5.000E+00   8.007E+02
   6.300E-08  -2.903E-05   2.067E-07  -5.000E+00   8.007E+02
   6.400E-08  -2.647E-05   1.889E-07  -5.000E+00   8.007E+02
   6.500E-08  -2.414E-05   1.727E-07  -5.000E+00   8.007E+02
   6.600E-08  -2.202E-05   1.579E-07  -5.000E+00   8.007E+02
   6.700E-08  -2.008E-05   1.444E-07  -5.000E+00   8.007E+02
   6.800E-08  -1.831E-05   1.321E-07  -5.000E+00   8.007E+02
   6.900E-08  -1.670E-05   1.209E-07  -5.000E+00   8.007E+02
   7.000E-08  -1.523E-05   1.106E-07  -5.000E+00   8.007E+02
   7.100E-08  -1.389E-05   1.014E-07  -5.000E+00   8.007E+02
   7.200E-08  -1.267E-05   9.292E-08  -5.000E+00   8.007E+02
   7.300E-08  -1.155E-05   8.515E-08  -5.000E+00   8.007E+02
   7.400E-08  -1.054E-05   7.809E-08  -5.000E+00   8.007E+02
   7.500E-08  -9.609E-06   7.163E-08  -5.000E+00   8.007E+02
   7.600E-08  -8.763E-06   6.568E-08  -5.000E+00   8.007E+02
   7.700E-08  -7.992E-06   6.028E-08  -5.000E+00   8.007E+02
   7.800E-08  -7.289E-06   5.546E-08  -5.000E+00   8.007E+02
   7.900E-08  -6.647E-06   5.105E-08  -5.000E+00   8.007E+02
   8.000E-08  -6.062E-06   4.699E-08  -5.000E+00   8.007E+02
   8.100E-08  -5.529E-06   4.328E-08  -5.000E+00   8.007E+02
   8.200E-08  -5.042E-06   3.993E-08  -5.000E+00   8.007E+02
   8.300E-08  -4.598E-06   3.683E-08  -5.000E+00   8.007E+02
   8.400E-08  -4.194E-06   3.397E-08  -5.000E+00   8.007E+02
   8.500E-08  -3.825E-06   3.143E-08  -5.000E+00   8.007E+02
   8.600E-08  -3.488E-06   2.915E-08  -5.000E+00   8.007E+02
   8.700E-08  -3.181E-06   2.694E-08  -5.000E+00   8.007E+02
   8.800E-08  -2.901E-06   2.489E-08  -5.000E+00   8.007E+02
   8.900E-08  -2.646E-06   2.317E-08  -5.000E+00   8.007E+02
   9.000E-08  -2.413E-06   2.162E-08  -5.000E+00   8.007E+02
   9.100E-08  -2.201E-06   2.011E-08  -5.000E+00   8.007E+02
   9.200E-08  -2.007E-06   1.876E-08  -5.000E+00   8.007E+02
   9.300E-08  -1.831E-06   1.748E-08  -5.000E+00   8.007E+02
   9.400E-08  -1.670E-06   1.636E-08  -5.000E+00   8.007E+02
   9.500E-08  -1.523E-06   1.540E-08  -5.000E+00   8.007E+02
   9.600E-08  -1.389E-06   1.447E-08  -5.000E+00   8.007E+02
   9.700E-08  -1.267E-06   1.362E-08  -5.000E+00   8.007E+02
   9.800E-08  -1.155E-06   1.281E-08  -5.000E+00   8.007E+02
   9.900E-08  -1.054E-06   1.207E-08  -5.000E+00   8.007E+02
   1.000E-07  -9.609E-07   1.154E-08  -5.000E+00   8.007E+02
   1.010E-07  -8.764E-07   1.091E-08  -5.000E+00   8.007E+02
   1.020E-07  -7.993E-07   1.038E-08  -5.000E+00   8.007E+02
   1.030E-07  -7.290E-07   9.912E-09  -5.000E+00   8.007E+02
   1.040E-07  -6.649E-07   9.446E-09  -5.000E+00   8.007E+02
   1.050E-07  -6.065E-07   8.981E-09  -5.000E+00   8.007E+02
   1.060E-07  -5.532E-07   8.598E-09  -5.000E+00   8.007E+02
   1.070E-07  -5.045E-07   8.332E-09  -5.000E+00   8.007E+02
   1.080E-07  -4.602E-07   8.016E-09  -5.000E+00   8.007E+02
   1.090E-07  -4.198E-07   7.750E-09  -5.000E+00   8.007E+02
   1.100E-07  -3.829E-07   7.517E-09  -5.000E+00   8.007E+02
   1.110E-07  -3.493E-07   7.201E-09  -5.000E+00   8.007E+02
   1.120E-07  -3.186E-07   6.935E-09  -5.000E+00   8.007E+02
   1.130E-07  -2.906E-07   6.785E-09  -5.000E+00   8.007E+02
   1.140E-07  -2.651E-07   6.669E-09  -5.000E+00   8.007E+02
   1.150E-07  -2.418E-07   6.469E-09  -5.000E+00   8.007E+02
   1.160E-07  -2.206E-07   6.320E-09  -5.000E+00   8.007E+02
   1.170E-07  -2.013E-07   6.203E-09  -5.000E+00   8.007E+02
   1.180E-07  -1.836E-07   6.087E-09  -5.000E+00   8.007E+02
   1.190E-07  -1.675E-07   5.971E-09  -5.000E+00   8.007E+02
   1.200E-07  -1.529E-07   5.854E-09  -5.000E+00   8.007E+02
   1.210E-07  -1.395E-07   5.738E-09  -5.000E+00   8.007E+02
   1.220E-07  -1.273E-07   5.621E-09  -5.000E+00   8.007E+02
   1.230E-07  -1.161E-07   5.588E-09  -5.000E+00   8.007E+02
   1.240E-07  -1.060E-07   5.505E-09  -5.000E+00   8.007E+02
   1.250E-07  -9.674E-08   5.555E-09  -5.000E+00   8.007E+02
   1.260E-07  -8.829E-08   5.505E-09  -5.000E+00   8.007E+02
   1.270E-07  -8.059E-08   5.389E-09  -5.000E+00   8.007E+02
   1.280E-07  -7.357E-08   5.272E-09  -5.000E+00   8.007E+02
   1.290E-07  -6.716E-08   5.239E-09  -5.000E+00   8.007E+02
   1.300E-07  -6.132E-08   5.239E-09  -5.000E+00   8.007E+02
   1.310E-07  -5.600E-08   5.156E-09  -5.000E+00   8.007E+02
   1.320E-07  -5.114E-08   5.122E-09  -5.000E+00   8.007E+02
   1.330E-07  -4.671E-08   5.122E-09  -5.000E+00   8.007E+02
   1.340E-07  -4.267E-08   5.039E-09  -5.000E+00   8.007E+02
   1.350E-07  -3.898E-08   5.006E-09  -5.000E+00   8.007E+02
   1.360E-07  -3.562E-08   5.006E-09  -5.000E+00   8.007E+02
   1.370E-07  -3.256E-08   5.089E-09  -5.000E+00   8.007E+02
   1.380E-07  -2.976E-08   4.956E-09  -5.000E+00   8.007E+02
   1.390E-07  -2.722E-08   4.889E-09  -5.000E+00   8.007E+02
   1.400E-07  -2.489E-08   4.889E-09  -5.000E+00   8.007E+02
   1.410E-07  -2.277E-08   4.889E-09  -5.000E+00   8.007E+02
   1.420E-07  -2.084E-08   4.889E-09  -5.000E+00   8.007E+02
   1.430E-07  -1.907E-08   4.889E-09  -5.000E+00   8.007E+02
   1.440E-07  -1.747E-08   4.889E-09  -5.000E+00   8.007E+02
   1.450E-07  -1.600E-08   4.889E-09  -5.000E+00   8.007E+02
   1.460E-07  -1.466E-08   4.889E-09  -5.000E+00   8.007E+02
   1.470E-07  -1.344E-08   4.889E-09  -5.000E+00   8.007E+02
   1.480E-07  -1.233E-08   4.889E-09  -5.000E+00   8.007E+02
   1.490E-07  -1.132E-08   4.889E-09  -5.000E+00   8.007E+02
   1.500E-07  -1.039E-08   4.889E-09  -5.000E+00   8.007E+02
   1.510E-07  -9.548E-09   4.889E-09  -5.000E+00   8.007E+02
   1.520E-07  -8.778E-09   4.889E-09  -5.000E+00   8.007E+02
   1.530E-07  -8.077E-09   4.889E-09  -5.000E+00   8.007E+02
   1.540E-07  -7.437E-09   4.889E-09  -5.000E+00   8.007E+02
   1.550E-07  -6.853E-09   4.807E-09  -5.000E+00   8.007E+02
   1.560E-07  -6.321E-09   4.773E-09  -5.000E+00   8.007E+02
   1.570E-07  -5.836E-09   4.856E-09  -5.000E+00   8.007E+02
   1.580E-07  -5.393E-09   4.807E-09  -5.000E+00   8.007E+02
   1.590E-07  -4.989E-09   4.856E-09  -5.000E+00   8.007E+02
   1.600E-07  -4.621E-09   4.807E-09  -5.000E+00   8.007E+02
   1.610E-07  -4.285E-09   4.856E-09  -5.000E+00   8.007E+02
   1.620E-07  -3.979E-09   4.807E-09  -5.000E+00   8.007E+02
   1.630E-07  -3.700E-09   4.856E-09  -5.000E+00   8.007E+02
   1.640E-07  -3.445E-09   4.889E-09  -5.000E+00   8.007E+02
   1.650E-07  -3.213E-09   4.889E-09  -5.000E+00   8.007E+02
   1.660E-07  -3.001E-09   4.889E-09  -5.000E+00   8.007E+02
   1.670E-07  -2.808E-09   4.807E-09  -5.000E+00   8.007E+02
   1.680E-07  -2.632E-09   4.773E-09  -5.000E+00   8.007E+02
   1.690E-07  -2.471E-09   4.773E-09  -5.000E+00   8.007E+02
   1.700E-07  -2.324E-09   4.773E-09  -5.000E+00   8.007E+02
   1.710E-07  -2.191E-09   4.773E-09  -5.000E+00   8.007E+02
   1.720E-07  -2.069E-09   4.773E-09  -5.000E+00   8.007E+02
   1.730E-07  -1.958E-09   4.773E-09  -5.000E+00   8.007E+02
   1.740E-07  -1.856E-09   4.856E-09  -5.000E+00   8.007E+02
   1.750E-07  -1.764E-09   4.807E-09  -5.000E+00   8.007E+02
   1.760E-07  -1.680E-09   4.856E-09  -5.000E+00   8.007E+02
   1.770E-07  -1.603E-09   4.889E-09  -5.000E+00   8.007E+02
   1.780E-07  -1.533E-09   4.889E-09  -5.000E+00   8.007E+02
   1.790E-07  -1.469E-09   4.807E-09  -5.000E+00   8.007E+02
   1.800E-07  -1.410E-09   4.773E-09  -5.000E+00   8.007E+02
   1.810E-07  -1.357E-09   4.856E-09  -5.000E+00   8.007E+02
   1.820E-07  -1.309E-09   4.889E-09  -5.000E+00   8.007E+02
   1.830E-07  -1.264E-09   4.807E-09  -5.000E+00   8.007E+02
   1.840E-07  -1.224E-09   4.856E-09  -5.000E+00   8.007E+02
   1.850E-07  -1.187E-09   4.807E-09  -5.000E+00   8.007E+02
   1.860E-07  -1.154E-09   4.773E-09  -5.000E+00   8.007E+02
   1.870E-07  -1.123E-09   4.773E-09  -5.000E+00   8.007E+02
   1.880E-07  -1.095E-09   4.856E-09  -5.000E+00   8.007E+02
   1.890E-07  -1.070E-09   4.889E-09  -5.000E+00   8.007E+02
   1.900E-07  -1.047E-09   4.807E-09  -5.000E+00   8.007E+02
   1.910E-07  -1.025E-09   4.856E-09  -5.000E+00   8.007E+02
   1.920E-07  -1.006E-09   4.807E-09  -5.000E+00   8.007E+02
   1.930E-07  -9.886E-10   4.773E-09  -5.000E+00   8.007E+02
   1.940E-07  -9.725E-10   4.773E-09  -5.000E+00   8.007E+02
   1.950E-07  -9.579E-10   4.773E-09  -5.000E+00   8.007E+02
   1.960E-07  -9.445E-10   4.773E-09  -5.000E+00   8.007E+02
   1.970E-07  -9.323E-10   4.773E-09  -5.000E+00   8.007E+02
   1.980E-07  -9.212E-10   4.773E-09  -5.000E+00   8.007E+02
   1.990E-07  -9.111E-10   4.773E-09  -5.000E+00   8.007E+02
   2.000E-07  -9.019E-10   4.773E-09  -5.000E+00   8.007E+02
   2.010E-07  -8.935E-10   4.773E-09  -5.000E+00   8.007E+02
   2.020E-07  -8.858E-10   4.773E-09  -5.000E+00   8.007E+02
   2.030E-07  -8.788E-10   4.773E-09  -5.000E+00   8.007E+02
   2.040E-07  -8.724E-10   4.773E-09  -5.000E+00   8.007E+02
   2.050E-07  -8.665E-10   4.773E-09  -5.000E+00   8.007E+02
   2.060E-07  -8.612E-10   4.773E-09  -5.000E+00   8.007E+02
   2.070E-07  -8.564E-10   4.773E-09  -5.000E+00   8.007E+02
   2.080E-07  -8.520E-10   4.773E-09  -5.000E+00   8.007E+02
   2.090E-07  -8.479E-10   4.773E-09  -5.000E+00   8.007E+02
   2.100E-07  -8.443E-10   4.773E-09  -5.000E+00   8.007E+02
   2.110E-07  -8.409E-10   4.773E-09  -5.000E+00   8.007E+02
   2.120E-07  -8.379E-10   4.773E-09  -5.000E+00   8.007E+02
   2.130E-07  -8.351E-10   4.773E-09  -5.000E+00   8.007E+02
   2.140E-07  -8.325E-10   4.773E-09  -5.000E+00   8.007E+02
   2.150E-07  -8.302E-10   4.773E-09  -5.000E+00   8.007E+02
   2.160E-07  -8.281E-10   4.773E-09  -5.000E+00   8.007E+02
   2.170E-07  -8.262E-10   4.773E-09  -5.000E+00   8.007E+02
   2.180E-07  -8.244E-10   4.855E-09  -5.000E+00   8.007E+02
   2.190E-07  -8.228E-10   4.889E-09  -5.000E+00   8.007E+02
   2.200E-07  -8.213E-10   4.889E-09  -5.000E+00   8.007E+02
   2.210E-07  -8.200E-10   4.807E-09  -5.000E+00   8.007E+02
   2.220E-07  -8.188E-10   4.773E-09  -5.000E+00   8.007E+02
   2.230E-07  -8.177E-10   4.773E-09  -5.000E+00   8.007E+02
   2.240E-07  -8.167E-10   4.773E-09  -5.000E+00   8.007E+02
   2.250E-07  -8.157E-10   4.773E-09  -5.000E+00   8.007E+02
   2.260E-07  -8.149E-10   4.773E-09  -5.000E+00   8.007E+02
   2.270E-07  -8.141E-10   4.773E-09  -5.000E+00   8.007E+02
   2.280E-07  -8.134E-10   4.773E-09  -5.000E+00   8.007E+02
   2.290E-07  -8.128E-10   4.855E-09  -5.000E+00   8.007E+02
   2.300E-07  -8.122E-10   4.807E-09  -5.000E+00   8.007E+02
   2.310E-07  -8.117E-10   4.773E-09  -5.000E+00   8.007E+02
   2.320E-07  -8.112E-10   4.773E-09  -5.000E+00   8.007E+02
   2.330E-07  -8.107E-10   4.855E-09  -5.000E+00   8.007E+02
   2.340E-07  -8.103E-10   4.807E-09  -5.000E+00   8.007E+02
   2.350E-07  -8.100E-10   4.773E-09  -5.000E+00   8.007E+02
   2.360E-07  -8.096E-10   4.773E-09  -5.000E+00   8.007E+02
   2.370E-07  -8.093E-10   4.773E-09  -5.000E+00   8.007E+02
   2.380E-07  -8.091E-10   4.773E-09  -5.000E+00   8.007E+02
   2.390E-07  -8.088E-10   4.773E-09  -5.000E+00   8.007E+02
   2.400E-07  -8.086E-10   4.773E-09  -5.000E+00   8.007E+02
   2.410E-07  -8.084E-10   4.773E-09  -5.000E+00   8.007E+02
   2.420E-07  -8.082E-10   4.773E-09  -5.000E+00   8.007E+02
   2.430E-07  -8.080E-10   4.773E-09  -5.000E+00   8.007E+02
   2.440E-07  -8.078E-10   4.773E-09  -5.000E+00   8.007E+02
   2.450E-07  -8.077E-10   4.773E-09  -5.000E+00   8.007E+02
   2.460E-07  -8.076E-10   4.773E-09  -5.000E+00   8.007E+02
   2.470E-07  -8.074E-10   4.773E-09  -5.000E+00   8.007E+02
   2.480E-07  -8.073E-10   4.773E-09  -5.000E+00   8.007E+02
   2.490E-07  -8.072E-10   4.773E-09  -5.000E+00   8.007E+02
   2.500E-07  -8.071E-10   4.773E-09  -5.000E+00   8.007E+02
   2.510E-07  -8.070E-10   4.773E-09  -5.000E+00   8.007E+02
   2.520E-07  -8.070E-10   4.773E-09  -5.000E+00   8.007E+02
   2.530E-07  -8.069E-10   4.773E-09  -5.000E+00   8.007E+02
   2.540E-07  -8.068E-10   4.773E-09  -5.000E+00   8.007E+02
   2.550E-07  -8.068E-10   4.773E-09  -5.000E+00   8.007E+02
   2.560E-07  -8.067E-10   4.773E-09  -5.000E+00   8.007E+02
   2.570E-07  -8.067E-10   4.855E-09  -5.000E+00   8.007E+02
   2.580E-07  -8.066E-10   4.807E-09  -5.000E+00   8.007E+02
   2.590E-07  -8.066E-10   4.773E-09  -5.000E+00   8.007E+02
   2.600E-07  -8.066E-10   4.773E-09  -5.000E+00   8.007E+02
   2.610E-07  -8.065E-10   4.773E-09  -5.000E+00   8.007E+02
   2.620E-07  -8.065E-10   4.773E-09  -5.000E+00   8.007E+02
   2.630E-07  -8.065E-10   4.773E-09  -5.000E+00   8.007E+02
   2.640E-07  -8.064E-10   4.773E-09  -5.000E+00   8.007E+02
   2.650E-07  -8.064E-10   4.773E-09  -5.000E+00   8.007E+02
   2.660E-07  -8.064E-10   4.773E-09  -5.000E+00   8.007E+02
   2.670E-07  -8.064E-10   4.773E-09  -5.000E+00   8.007E+02
   2.680E-07  -8.064E-10   4.773E-09  -5.000E+00   8.007E+02
   2.690E-07  -8.063E-10   4.773E-09  -5.000E+00   8.007E+02
   2.700E-07  -8.063E-10   4.773E-09  -5.000E+00   8.007E+02
   2.710E-07  -8.063E-10   4.773E-09  -5.000E+00   8.007E+02
   2.720E-07  -8.063E-10   4.773E-09  -5.000E+00   8.007E+02
   2.730E-07  -8.063E-10   4.773E-09  -5.000E+00   8.007E+02
   2.740E-07  -8.063E-10   4.773E-09  -5.000E+00   8.007E+02
   2.750E-07  -8.063E-10   4.773E-09  -5.000E+00   8.007E+02
   2.760E-07  -8.063E-10   4.773E-09  -5.000E+00   8.007E+02
   2.770E-07  -8.063E-10   4.773E-09  -5.000E+00   8.007E+02
   2.780E-07  -8.062E-10   4.773E-09  -5.000E+00   8.007E+02
   2.790E-07  -8.062E-10   4.773E-09  -5.000E+00   8.007E+02
   2.800E-07  -8.062E-10   4.773E-09  -5.000E+00   8.007E+02
   2.810E-07  -8.062E-10   4.773E-09  -5.000E+00   8.007E+02
   2.820E-07  -8.062E-10   4.773E-09  -5.000E+00   8.007E+02
   2.830E-07  -8.062E-10   4.773E-09  -5.000E+00   8.007E+02
   2.840E-07  -8.062E-10   4.773E-09  -5.000E+00   8.007E+02
   2.850E-07  -8.062E-10   4.773E-09  -5.000E+00   8.007E+02
   2.860E-07  -8.062E-10   4.773E-09  -5.000E+00   8.007E+02
   2.870E-07  -8.062E-10   4.773E-09  -5.000E+00   8.007E+02
   2.880E-07  -8.062E-10   4.773E-09  -5.000E+00   8.007E+02
   2.890E-07  -8.062E-10   4.773E-09  -5.000E+00   8.007E+02
   2.900E-07  -8.062E-10   4.773E-09  -5.000E+00   8.007E+02
   2.910E-07  -8.062E-10   4.773E-09  -5.000E+00   8.007E+02
   2.920E-07  -8.062E-10   4.773E-09  -5.000E+00   8.007E+02
   2.930E-07  -8.062E-10   4.773E-09  -5.000E+00   8.007E+02
   2.940E-07  -8.062E-10   4.773E-09  -5.000E+00   8.007E+02
   2.950E-07  -8.062E-10   4.773E-09  -5.000E+00   8.007E+02
   2.960E-07  -8.062E-10   4.773E-09  -5.000E+00   8.007E+02
   2.970E-07  -8.062E-10   4.773E-09  -5.000E+00   8.007E+02
   2.980E-07  -8.062E-10   4.773E-09  -5.000E+00   8.007E+02
   2.990E-07  -8.062E-10   4.773E-09  -5.000E+00   8.007E+02
   3.000E-07  -8.062E-10   4.773E-09  -5.000E+00   8.007E+02
   3.010E-07  -8.062E-10   4.773E-09  -5.000E+00   8.007E+02
   3.020E-07  -8.062E-10   4.773E-09  -5.000E+00   8.007E+02
   3.030E-07  -8.062E-10   4.773E-09  -5.000E+00   8.007E+02
   3.040E-07  -8.062E-10   4.773E-09  -5.000E+00   8.007E+02
   3.050E-07  -8.062E-10   4.773E-09  -5.000E+00   8.007E+02
   3.060E-07  -8.062E-10   4.773E-09  -5.000E+00   8.007E+02
   3.070E-07  -8.062E-10   4.773E-09  -5.000E+00   8.007E+02
   3.080E-07  -8.062E-10   4.773E-09  -5.000E+00   8.007E+02
   3.090E-07  -8.062E-10   4.773E-09  -5.000E+00   8.007E+02
   3.100E-07  -8.062E-10   4.773E-09  -5.000E+00   8.007E+02
   3.110E-07  -8.062E-10   4.773E-09  -5.000E+00   8.007E+02
   3.120E-07  -8.062E-10   4.773E-09  -5.000E+00   8.007E+02
   3.130E-07  -8.062E-10   4.773E-09  -5.000E+00   8.007E+02
   3.140E-07  -8.062E-10   4.773E-09  -5.000E+00   8.007E+02
   3.150E-07  -8.062E-10   4.773E-09  -5.000E+00   8.007E+02
   3.160E-07  -8.062E-10   4.773E-09  -5.000E+00   8.007E+02
   3.170E-07  -8.062E-10   4.773E-09  -5.000E+00   8.007E+02
   3.180E-07  -8.062E-10   4.773E-09  -5.000E+00   8.007E+02
   3.190E-07  -8.062E-10   4.773E-09  -5.000E+00   8.007E+02
   3.200E-07  -8.062E-10   4.773E-09  -5.000E+00   8.007E+02
   3.210E-07  -8.062E-10   4.773E-09  -5.000E+00   8.007E+02
   3.220E-07  -8.062E-10   4.773E-09  -5.000E+00   8.007E+02
   3.230E-07  -8.062E-10   4.773E-09  -5.000E+00   8.007E+02
   3.240E-07  -8.062E-10   4.773E-09  -5.000E+00   8.007E+02
   3.250E-07  -8.062E-10   4.773E-09  -5.000E+00   8.007E+02
   3.260E-07  -8.062E-10   4.773E-09  -5.000E+00   8.007E+02
   3.270E-07  -8.062E-10   4.773E-09  -5.000E+00   8.007E+02
   3.280E-07  -8.062E-10   4.773E-09  -5.000E+00   8.007E+02
   3.290E-07  -8.062E-10   4.773E-09  -5.000E+00   8.007E+02
   3.300E-07  -8.062E-10   4.773E-09  -5.000E+00   8.007E+02
   3.310E-07  -8.062E-10   4.773E-09  -5.000E+00   8.007E+02
   3.320E-07  -8.062E-10   4.773E-09  -5.000E+00   8.007E+02
   3.330E-07  -8.062E-10   4.773E-09  -5.000E+00   8.007E+02
   3.340E-07  -8.062E-10   4.773E-09  -5.000E+00   8.007E+02
   3.350E-07  -8.062E-10   4.773E-09  -5.000E+00   8.007E+02
   3.360E-07  -8.062E-10   4.773E-09  -5.000E+00   8.007E+02
   3.370E-07  -8.062E-10   4.773E-09  -5.000E+00   8.007E+02
   3.380E-07  -8.062E-10   4.773E-09  -5.000E+00   8.007E+02
   3.390E-07  -8.062E-10   4.773E-09  -5.000E+00   8.007E+02
   3.400E-07  -8.062E-10   4.773E-09  -5.000E+00   8.007E+02
   3.410E-07  -8.062E-10   4.773E-09  -5.000E+00   8.007E+02
   3.420E-07  -8.062E-10   4.773E-09  -5.000E+00   8.007E+02
   3.430E-07  -8.062E-10   4.773E-09  -5.000E+00   8.007E+02
   3.440E-07  -8.062E-10   4.773E-09  -5.000E+00   8.007E+02
   3.450E-07  -8.062E-10   4.773E-09  -5.000E+00   8.007E+02
   3.460E-07  -8.062E-10   4.773E-09  -5.000E+00   8.007E+02
   3.470E-07  -8.062E-10   4.773E-09  -5.000E+00   8.007E+02
   3.480E-07  -8.062E-10   4.773E-09  -5.000E+00   8.007E+02
   3.490E-07  -8.062E-10   4.773E-09  -5.000E+00   8.007E+02
   3.500E-07  -8.062E-10   4.773E-09  -5.000E+00   8.007E+02
   3.510E-07  -8.062E-10   4.773E-09  -5.000E+00   8.007E+02
   3.520E-07  -8.062E-10   4.773E-09  -5.000E+00   8.007E+02
   3.530E-07  -8.062E-10   4.773E-09  -5.000E+00   8.007E+02
   3.540E-07  -8.062E-10   4.773E-09  -5.000E+00   8.007E+02
   3.550E-07  -8.062E-10   4.773E-09  -5.000E+00   8.007E+02
   3.560E-07  -8.062E-10   4.773E-09  -5.000E+00   8.007E+02
   3.570E-07  -8.062E-10   4.773E-09  -5.000E+00   8.007E+02
   3.580E-07  -8.062E-10   4.773E-09  -5.000E+00   8.007E+02
   3.590E-07  -8.062E-10   4.773E-09  -5.000E+00   8.007E+02
   3.600E-07  -8.062E-10   4.773E-09  -5.000E+00   8.007E+02
   3.610E-07  -8.062E-10   4.773E-09  -5.000E+00   8.007E+02
   3.620E-07  -8.062E-10   4.773E-09  -5.000E+00   8.007E+02
   3.630E-07  -8.062E-10   4.773E-09  -5.000E+00   8.007E+02
   3.640E-07  -8.062E-10   4.773E-09  -5.000E+00   8.007E+02
   3.650E-07  -8.062E-10   4.773E-09  -5.000E+00   8.007E+02
   3.660E-07  -8.062E-10   4.773E-09  -5.000E+00   8.007E+02
   3.670E-07  -8.062E-10   4.773E-09  -5.000E+00   8.007E+02
   3.680E-07  -8.062E-10   4.773E-09  -5.000E+00   8.007E+02
   3.690E-07  -8.062E-10   4.773E-09  -5.000E+00   8.007E+02
   3.700E-07  -8.062E-10   4.773E-09  -5.000E+00   8.007E+02
   3.710E-07  -8.062E-10   4.773E-09  -5.000E+00   8.007E+02
   3.720E-07  -8.062E-10   4.773E-09  -5.000E+00   8.007E+02
   3.730E-07  -8.062E-10   4.773E-09  -5.000E+00   8.007E+02
   3.740E-07  -8.062E-10   4.773E-09  -5.000E+00   8.007E+02
   3.750E-07  -8.062E-10   4.773E-09  -5.000E+00   8.007E+02
   3.760E-07  -8.062E-10   4.773E-09  -5.000E+00   8.007E+02
   3.770E-07  -8.062E-10   4.773E-09  -5.000E+00   8.007E+02
   3.780E-07  -8.062E-10   4.773E-09  -5.000E+00   8.007E+02
   3.790E-07  -8.062E-10   4.773E-09  -5.000E+00   8.007E+02
   3.800E-07  -8.062E-10   4.773E-09  -5.000E+00   8.007E+02
   3.810E-07  -8.062E-10   4.773E-09  -5.000E+00   8.007E+02
   3.820E-07  -8.062E-10   4.773E-09  -5.000E+00   8.007E+02
   3.830E-07  -8.062E-10   4.773E-09  -5.000E+00   8.007E+02
   3.840E-07  -8.062E-10   4.773E-09  -5.000E+00   8.007E+02
   3.850E-07  -8.062E-10   4.773E-09  -5.000E+00   8.007E+02
   3.860E-07  -8.062E-10   4.773E-09  -5.000E+00   8.007E+02
   3.870E-07  -8.062E-10   4.773E-09  -5.000E+00   8.007E+02
   3.880E-07  -8.062E-10   4.773E-09  -5.000E+00   8.007E+02
   3.890E-07  -8.062E-10   4.773E-09  -5.000E+00   8.007E+02
   3.900E-07  -8.062E-10   4.773E-09  -5.000E+00   8.007E+02
   3.910E-07  -8.062E-10   4.773E-09  -5.000E+00   8.007E+02
   3.920E-07  -8.062E-10   4.773E-09  -5.000E+00   8.007E+02
   3.930E-07  -8.062E-10   4.773E-09  -5.000E+00   8.007E+02
   3.940E-07  -8.062E-10   4.773E-09  -5.000E+00   8.007E+02
   3.950E-07  -8.062E-10   4.773E-09  -5.000E+00   8.007E+02
   3.960E-07  -8.062E-10   4.773E-09  -5.000E+00   8.007E+02
   3.970E-07  -8.062E-10   4.773E-09  -5.000E+00   8.007E+02
   3.980E-07  -8.062E-10   4.773E-09  -5.000E+00   8.007E+02
   3.990E-07  -8.062E-10   4.773E-09  -5.000E+00   8.007E+02
   4.000E-07  -8.062E-10   4.773E-09  -5.000E+00   8.007E+02
   4.010E-07  -8.062E-10   4.773E-09  -5.000E+00   8.007E+02
   4.020E-07  -8.062E-10   4.773E-09  -5.000E+00   8.007E+02
   4.030E-07  -8.062E-10   4.773E-09  -5.000E+00   8.007E+02
   4.040E-07  -8.062E-10   4.773E-09  -5.000E+00   8.007E+02
   4.050E-07  -8.062E-10   4.773E-09  -5.000E+00   8.007E+02
   4.060E-07  -8.062E-10   4.773E-09  -5.000E+00   8.007E+02
   4.070E-07  -8.062E-10   4.773E-09  -5.000E+00   8.007E+02
   4.080E-07  -8.062E-10   4.773E-09  -5.000E+00   8.007E+02
   4.090E-07  -8.062E-10   4.773E-09  -5.000E+00   8.007E+02
   4.100E-07  -8.062E-10   4.773E-09  -5.000E+00   8.007E+02
   4.110E-07  -8.062E-10   4.773E-09  -5.000E+00   8.007E+02
   4.120E-07  -8.062E-10   4.773E-09  -5.000E+00   8.007E+02
   4.130E-07  -8.062E-10   4.773E-09  -5.000E+00   8.007E+02
   4.140E-07  -8.062E-10   4.773E-09  -5.000E+00   8.007E+02
   4.150E-07  -8.062E-10   4.773E-09  -5.000E+00   8.007E+02
   4.160E-07  -8.062E-10   4.773E-09  -5.000E+00   8.007E+02
   4.170E-07  -8.062E-10   4.773E-09  -5.000E+00   8.007E+02
   4.180E-07  -8.062E-10   4.773E-09  -5.000E+00   8.007E+02
   4.190E-07  -8.062E-10   4.773E-09  -5.000E+00   8.007E+02
   4.200E-07  -8.062E-10   4.773E-09  -5.000E+00   8.007E+02
   4.210E-07  -8.062E-10   4.773E-09  -5.000E+00   8.007E+02
   4.220E-07  -8.062E-10   4.773E-09  -5.000E+00   8.007E+02
   4.230E-07  -8.062E-10   4.773E-09  -5.000E+00   8.007E+02
   4.240E-07  -8.062E-10   4.773E-09  -5.000E+00   8.007E+02
   4.250E-07  -8.062E-10   4.773E-09  -5.000E+00   8.007E+02
   4.260E-07  -8.062E-10   4.773E-09  -5.000E+00   8.007E+02
   4.270E-07  -8.062E-10   4.773E-09  -5.000E+00   8.007E+02
   4.280E-07  -8.062E-10   4.773E-09  -5.000E+00   8.007E+02
   4.290E-07  -8.062E-10   4.773E-09  -5.000E+00   8.007E+02
   4.300E-07  -8.062E-10   4.773E-09  -5.000E+00   8.007E+02
   4.310E-07  -8.062E-10   4.773E-09  -5.000E+00   8.007E+02
   4.320E-07  -8.062E-10   4.773E-09  -5.000E+00   8.007E+02
   4.330E-07  -8.062E-10   4.773E-09  -5.000E+00   8.007E+02
   4.340E-07  -8.062E-10   4.773E-09  -5.000E+00   8.007E+02
   4.350E-07  -8.062E-10   4.773E-09  -5.000E+00   8.007E+02
   4.360E-07  -8.062E-10   4.773E-09  -5.000E+00   8.007E+02
   4.370E-07  -8.062E-10   4.773E-09  -5.000E+00   8.007E+02
   4.380E-07  -8.062E-10   4.773E-09  -5.000E+00   8.007E+02
   4.390E-07  -8.062E-10   4.773E-09  -5.000E+00   8.007E+02
   4.400E-07  -8.062E-10   4.773E-09  -5.000E+00   8.007E+02
   4.410E-07  -8.062E-10   4.773E-09  -5.000E+00   8.007E+02
   4.420E-07  -8.062E-10   4.773E-09  -5.000E+00   8.007E+02
   4.430E-07  -8.062E-10   4.773E-09  -5.000E+00   8.007E+02
   4.440E-07  -8.062E-10   4.773E-09  -5.000E+00   8.007E+02
   4.450E-07  -8.062E-10   4.773E-09  -5.000E+00   8.007E+02
   4.460E-07  -8.062E-10   4.773E-09  -5.000E+00   8.007E+02
   4.470E-07  -8.062E-10   4.773E-09  -5.000E+00   8.007E+02
   4.480E-07  -8.062E-10   4.773E-09  -5.000E+00   8.007E+02
   4.490E-07  -8.062E-10   4.773E-09  -5.000E+00   8.007E+02
   4.500E-07  -8.062E-10   4.773E-09  -5.000E+00   8.007E+02
   4.510E-07  -8.062E-10   4.773E-09  -5.000E+00   8.007E+02
   4.520E-07  -8.062E-10   4.773E-09  -5.000E+00   8.007E+02
   4.530E-07  -8.062E-10   4.773E-09  -5.000E+00   8.007E+02
   4.540E-07  -8.062E-10   4.773E-09  -5.000E+00   8.007E+02
   4.550E-07  -8.062E-10   4.773E-09  -5.000E+00   8.007E+02
   4.560E-07  -8.062E-10   4.773E-09  -5.000E+00   8.007E+02
   4.570E-07  -8.062E-10   4.773E-09  -5.000E+00   8.007E+02
   4.580E-07  -8.062E-10   4.773E-09  -5.000E+00   8.007E+02
   4.590E-07  -8.062E-10   4.773E-09  -5.000E+00   8.007E+02
   4.600E-07  -8.062E-10   4.773E-09  -5.000E+00   8.007E+02
   4.610E-07  -8.062E-10   4.773E-09  -5.000E+00   8.007E+02
   4.620E-07  -8.062E-10   4.773E-09  -5.000E+00   8.007E+02
   4.630E-07  -8.062E-10   4.773E-09  -5.000E+00   8.007E+02
   4.640E-07  -8.062E-10   4.773E-09  -5.000E+00   8.007E+02
   4.650E-07  -8.062E-10   4.773E-09  -5.000E+00   8.007E+02
   4.660E-07  -8.062E-10   4.773E-09  -5.000E+00   8.007E+02
   4.670E-07  -8.062E-10   4.773E-09  -5.000E+00   8.007E+02
   4.680E-07  -8.062E-10   4.773E-09  -5.000E+00   8.007E+02
   4.690E-07  -8.062E-10   4.773E-09  -5.000E+00   8.007E+02
   4.700E-07  -8.062E-10   4.773E-09  -5.000E+00   8.007E+02
   4.710E-07  -8.062E-10   4.773E-09  -5.000E+00   8.007E+02
   4.720E-07  -8.062E-10   4.773E-09  -5.000E+00   8.007E+02
   4.730E-07  -8.062E-10   4.773E-09  -5.000E+00   8.007E+02
   4.740E-07  -8.062E-10   4.773E-09  -5.000E+00   8.007E+02
   4.750E-07  -8.062E-10   4.773E-09  -5.000E+00   8.007E+02
   4.760E-07  -8.062E-10   4.773E-09  -5.000E+00   8.007E+02
   4.770E-07  -8.062E-10   4.773E-09  -5.000E+00   8.007E+02
   4.780E-07  -8.062E-10   4.773E-09  -5.000E+00   8.007E+02
   4.790E-07  -8.062E-10   4.773E-09  -5.000E+00   8.007E+02
   4.800E-07  -8.062E-10   4.773E-09  -5.000E+00   8.007E+02
   4.810E-07  -8.062E-10   4.773E-09  -5.000E+00   8.007E+02
   4.820E-07  -8.062E-10   4.773E-09  -5.000E+00   8.007E+02
   4.830E-07  -8.062E-10   4.773E-09  -5.000E+00   8.007E+02
   4.840E-07  -8.062E-10   4.773E-09  -5.000E+00   8.007E+02
   4.850E-07  -8.062E-10   4.773E-09  -5.000E+00   8.007E+02
   4.860E-07  -8.062E-10   4.773E-09  -5.000E+00   8.007E+02
   4.870E-07  -8.062E-10   4.773E-09  -5.000E+00   8.007E+02
   4.880E-07  -8.062E-10   4.773E-09  -5.000E+00   8.007E+02
   4.890E-07  -8.062E-10   4.773E-09  -5.000E+00   8.007E+02
   4.900E-07  -8.062E-10   4.773E-09  -5.000E+00   8.007E+02
   4.910E-07  -8.062E-10   4.773E-09  -5.000E+00   8.007E+02
   4.920E-07  -8.062E-10   4.773E-09  -5.000E+00   8.007E+02
   4.930E-07  -8.062E-10   4.773E-09  -5.000E+00   8.007E+02
   4.940E-07  -8.062E-10   4.773E-09  -5.000E+00   8.007E+02
   4.950E-07  -8.062E-10   4.773E-09  -5.000E+00   8.007E+02
   4.960E-07  -8.062E-10   4.773E-09  -5.000E+00   8.007E+02
   4.970E-07  -8.062E-10   4.773E-09  -5.000E+00   8.007E+02
   4.980E-07  -8.062E-10   4.773E-09  -5.000E+00   8.007E+02
   4.990E-07  -8.062E-10   4.773E-09  -5.000E+00   8.007E+02
   5.000E-07  -8.062E-10   4.773E-09  -5.000E+00   8.007E+02
   5.010E-07  -8.062E-10   4.773E-09  -5.000E+00   8.007E+02
   5.020E-07  -8.062E-10   4.773E-09  -5.000E+00   8.007E+02
   5.030E-07  -8.062E-10   4.773E-09  -5.000E+00   8.007E+02
   5.040E-07  -8.062E-10   4.773E-09  -5.000E+00   8.007E+02
   5.050E-07  -8.062E-10   4.773E-09  -5.000E+00   8.007E+02
   5.060E-07  -8.062E-10   4.773E-09  -5.000E+00   8.007E+02
   5.070E-07  -8.062E-10   4.773E-09  -5.000E+00   8.007E+02
   5.080E-07  -8.062E-10   4.773E-09  -5.000E+00   8.007E+02
   5.090E-07  -8.062E-10   4.773E-09  -5.000E+00   8.007E+02
   5.100E-07  -8.062E-10   4.773E-09  -5.000E+00   8.007E+02
   5.110E-07  -8.062E-10   4.773E-09  -5.000E+00   8.007E+02
   5.120E-07  -8.062E-10   4.773E-09  -5.000E+00   8.007E+02
   5.130E-07  -8.062E-10   4.773E-09  -5.000E+00   8.007E+02
   5.140E-07  -8.062E-10   4.773E-09  -5.000E+00   8.007E+02
   5.150E-07  -8.062E-10   4.773E-09  -5.000E+00   8.007E+02
   5.160E-07  -8.062E-10   4.773E-09  -5.000E+00   8.007E+02
   5.170E-07  -8.062E-10   4.773E-09  -5.000E+00   8.007E+02
   5.180E-07  -8.062E-10   4.773E-09  -5.000E+00   8.007E+02
   5.190E-07  -8.062E-10   4.773E-09  -5.000E+00   8.007E+02
   5.200E-07  -8.062E-10   4.773E-09  -5.000E+00   8.007E+02
   5.210E-07  -8.062E-10   4.773E-09  -5.000E+00   8.007E+02
   5.220E-07  -8.062E-10   4.773E-09  -5.000E+00   8.007E+02
   5.230E-07  -8.062E-10   4.773E-09  -5.000E+00   8.007E+02
   5.240E-07  -8.062E-10   4.773E-09  -5.000E+00   8.007E+02
   5.250E-07  -8.062E-10   4.773E-09  -5.000E+00   8.007E+02
   5.260E-07  -8.062E-10   4.773E-09  -5.000E+00   8.007E+02
   5.270E-07  -8.062E-10   4.773E-09  -5.000E+00   8.007E+02
   5.280E-07  -8.062E-10   4.773E-09  -5.000E+00   8.007E+02
   5.290E-07  -8.062E-10   4.773E-09  -5.000E+00   8.007E+02
   5.300E-07  -8.062E-10   4.773E-09  -5.000E+00   8.007E+02
   5.310E-07  -8.062E-10   4.773E-09  -5.000E+00   8.007E+02
   5.320E-07  -8.062E-10   4.773E-09  -5.000E+00   8.007E+02
   5.330E-07  -8.062E-10   4.773E-09  -5.000E+00   8.007E+02
   5.340E-07  -8.062E-10   4.773E-09  -5.000E+00   8.007E+02
   5.350E-07  -8.062E-10   4.773E-09  -5.000E+00   8.007E+02
   5.360E-07  -8.062E-10   4.773E-09  -5.000E+00   8.007E+02
   5.370E-07  -8.062E-10   4.773E-09  -5.000E+00   8.007E+02
   5.380E-07  -8.062E-10   4.773E-09  -5.000E+00   8.007E+02
   5.390E-07  -8.062E-10   4.773E-09  -5.000E+00   8.007E+02
   5.400E-07  -8.062E-10   4.773E-09  -5.000E+00   8.007E+02
   5.410E-07  -8.062E-10   4.773E-09  -5.000E+00   8.007E+02
   5.420E-07  -8.062E-10   4.773E-09  -5.000E+00   8.007E+02
   5.430E-07  -8.062E-10   4.773E-09  -5.000E+00   8.007E+02
   5.440E-07  -8.062E-10   4.773E-09  -5.000E+00   8.007E+02
   5.450E-07  -8.062E-10   4.773E-09  -5.000E+00   8.007E+02
   5.460E-07  -8.062E-10   4.773E-09  -5.000E+00   8.007E+02
   5.470E-07  -8.062E-10   4.773E-09  -5.000E+00   8.007E+02
   5.480E-07  -8.062E-10   4.773E-09  -5.000E+00   8.007E+02
   5.490E-07  -8.062E-10   4.773E-09  -5.000E+00   8.007E+02
   5.500E-07  -8.062E-10   4.773E-09  -5.000E+00   8.007E+02
   5.510E-07  -8.062E-10   4.773E-09  -5.000E+00   8.007E+02
   5.520E-07  -8.062E-10   4.773E-09  -5.000E+00   8.007E+02
   5.530E-07  -8.062E-10   4.773E-09  -5.000E+00   8.007E+02
   5.540E-07  -8.062E-10   4.773E-09  -5.000E+00   8.007E+02
   5.550E-07  -8.062E-10   4.773E-09  -5.000E+00   8.007E+02
   5.560E-07  -8.062E-10   4.773E-09  -5.000E+00   8.007E+02
   5.570E-07  -8.062E-10   4.773E-09  -5.000E+00   8.007E+02
   5.580E-07  -8.062E-10   4.773E-09  -5.000E+00   8.007E+02
   5.590E-07  -8.062E-10   4.773E-09  -5.000E+00   8.007E+02
   5.600E-07  -8.062E-10   4.773E-09  -5.000E+00   8.007E+02
   5.610E-07  -8.062E-10   4.773E-09  -5.000E+00   8.007E+02
   5.620E-07  -8.062E-10   4.773E-09  -5.000E+00   8.007E+02
   5.630E-07  -8.062E-10   4.773E-09  -5.000E+00   8.007E+02
   5.640E-07  -8.062E-10   4.773E-09  -5.000E+00   8.007E+02
   5.650E-07  -8.062E-10   4.773E-09  -5.000E+00   8.007E+02
   5.660E-07  -8.062E-10   4.773E-09  -5.000E+00   8.007E+02
   5.670E-07  -8.062E-10   4.773E-09  -5.000E+00   8.007E+02
   5.680E-07  -8.062E-10   4.773E-09  -5.000E+00   8.007E+02
   5.690E-07  -8.062E-10   4.773E-09  -5.000E+00   8.007E+02
   5.700E-07  -8.062E-10   4.773E-09  -5.000E+00   8.007E+02
   5.710E-07  -8.062E-10   4.773E-09  -5.000E+00   8.007E+02
   5.720E-07  -8.062E-10   4.773E-09  -5.000E+00   8.007E+02
   5.730E-07  -8.062E-10   4.773E-09  -5.000E+00   8.007E+02
   5.740E-07  -8.062E-10   4.773E-09  -5.000E+00   8.007E+02
   5.750E-07  -8.062E-10   4.773E-09  -5.000E+00   8.007E+02
   5.760E-07  -8.062E-10   4.773E-09  -5.000E+00   8.007E+02
   5.770E-07  -8.062E-10   4.773E-09  -5.000E+00   8.007E+02
   5.780E-07  -8.062E-10   4.773E-09  -5.000E+00   8.007E+02
   5.790E-07  -8.062E-10   4.773E-09  -5.000E+00   8.007E+02
   5.800E-07  -8.062E-10   4.773E-09  -5.000E+00   8.007E+02
   5.810E-07  -8.062E-10   4.773E-09  -5.000E+00   8.007E+02
   5.820E-07  -8.062E-10   4.773E-09  -5.000E+00   8.007E+02
   5.830E-07  -8.062E-10   4.773E-09  -5.000E+00   8.007E+02
   5.840E-07  -8.062E-10   4.773E-09  -5.000E+00   8.007E+02
   5.850E-07  -8.062E-10   4.773E-09  -5.000E+00   8.007E+02
   5.860E-07  -8.062E-10   4.773E-09  -5.000E+00   8.007E+02
   5.870E-07  -8.062E-10   4.773E-09  -5.000E+00   8.007E+02
   5.880E-07  -8.062E-10   4.773E-09  -5.000E+00   8.007E+02
   5.890E-07  -8.062E-10   4.773E-09  -5.000E+00   8.007E+02
   5.900E-07  -8.062E-10   4.773E-09  -5.000E+00   8.007E+02
   5.910E-07  -8.062E-10   4.773E-09  -5.000E+00   8.007E+02
   5.920E-07  -8.062E-10   4.773E-09  -5.000E+00   8.007E+02
   5.930E-07  -8.062E-10   4.773E-09  -5.000E+00   8.007E+02
   5.940E-07  -8.062E-10   4.773E-09  -5.000E+00   8.007E+02
   5.950E-07  -8.062E-10   4.773E-09  -5.000E+00   8.007E+02
   5.960E-07  -8.062E-10   4.773E-09  -5.000E+00   8.007E+02
   5.970E-07  -8.062E-10   4.773E-09  -5.000E+00   8.007E+02
   5.980E-07  -8.062E-10   4.773E-09  -5.000E+00   8.007E+02
   5.990E-07  -8.062E-10   4.773E-09  -5.000E+00   8.007E+02
   6.000E-07  -8.062E-10   4.773E-09  -5.000E+00   8.007E+02
   6.010E-07  -8.062E-10   4.773E-09  -5.000E+00   8.007E+02
   6.020E-07  -8.062E-10   4.773E-09  -5.000E+00   8.007E+02
   6.030E-07  -8.062E-10   4.773E-09  -5.000E+00   8.007E+02
   6.040E-07  -8.062E-10   4.773E-09  -5.000E+00   8.007E+02
   6.050E-07  -8.062E-10   4.773E-09  -5.000E+00   8.007E+02
   6.060E-07  -8.062E-10   4.773E-09  -5.000E+00   8.007E+02
   6.070E-07  -8.062E-10   4.773E-09  -5.000E+00   8.007E+02
   6.080E-07  -8.062E-10   4.773E-09  -5.000E+00   8.007E+02
   6.090E-07  -8.062E-10   4.773E-09  -5.000E+00   8.007E+02
   6.100E-07  -8.062E-10   4.773E-09  -5.000E+00   8.007E+02
   6.110E-07  -8.062E-10   4.773E-09  -5.000E+00   8.007E+02
   6.120E-07  -8.062E-10   4.773E-09  -5.000E+00   8.007E+02
   6.130E-07  -8.062E-10   4.773E-09  -5.000E+00   8.007E+02
   6.140E-07  -8.062E-10   4.773E-09  -5.000E+00   8.007E+02
   6.150E-07  -8.062E-10   4.773E-09  -5.000E+00   8.007E+02
   6.160E-07  -8.062E-10   4.773E-09  -5.000E+00   8.007E+02
   6.170E-07  -8.062E-10   4.773E-09  -5.000E+00   8.007E+02
   6.180E-07  -8.062E-10   4.773E-09  -5.000E+00   8.007E+02
   6.190E-07  -8.062E-10   4.773E-09  -5.000E+00   8.007E+02
   6.200E-07  -8.062E-10   4.773E-09  -5.000E+00   8.007E+02
   6.210E-07  -8.062E-10   4.773E-09  -5.000E+00   8.007E+02
   6.220E-07  -8.062E-10   4.773E-09  -5.000E+00   8.007E+02
   6.230E-07  -8.062E-10   4.773E-09  -5.000E+00   8.007E+02
   6.240E-07  -8.062E-10   4.773E-09  -5.000E+00   8.007E+02
   6.250E-07  -8.062E-10   4.773E-09  -5.000E+00   8.007E+02
   6.260E-07  -8.062E-10   4.773E-09  -5.000E+00   8.007E+02
   6.270E-07  -8.062E-10   4.773E-09  -5.000E+00   8.007E+02
   6.280E-07  -8.062E-10   4.773E-09  -5.000E+00   8.007E+02
   6.290E-07  -8.062E-10   4.773E-09  -5.000E+00   8.007E+02
   6.300E-07  -8.062E-10   4.773E-09  -5.000E+00   8.007E+02
   6.310E-07  -8.062E-10   4.773E-09  -5.000E+00   8.007E+02
   6.320E-07  -8.062E-10   4.773E-09  -5.000E+00   8.007E+02
   6.330E-07  -8.062E-10   4.773E-09  -5.000E+00   8.007E+02
   6.340E-07  -8.062E-10   4.773E-09  -5.000E+00   8.007E+02
   6.350E-07  -8.062E-10   4.773E-09  -5.000E+00   8.007E+02
   6.360E-07  -8.062E-10   4.773E-09  -5.000E+00   8.007E+02
   6.370E-07  -8.062E-10   4.773E-09  -5.000E+00   8.007E+02
   6.380E-07  -8.062E-10   4.773E-09  -5.000E+00   8.007E+02
   6.390E-07  -8.062E-10   4.773E-09  -5.000E+00   8.007E+02
   6.400E-07  -8.062E-10   4.773E-09  -5.000E+00   8.007E+02
   6.410E-07  -8.062E-10   4.773E-09  -5.000E+00   8.007E+02
   6.420E-07  -8.062E-10   4.773E-09  -5.000E+00   8.007E+02
   6.430E-07  -8.062E-10   4.773E-09  -5.000E+00   8.007E+02
   6.440E-07  -8.062E-10   4.773E-09  -5.000E+00   8.007E+02
   6.450E-07  -8.062E-10   4.773E-09  -5.000E+00   8.007E+02
   6.460E-07  -8.062E-10   4.773E-09  -5.000E+00   8.007E+02
   6.470E-07  -8.062E-10   4.773E-09  -5.000E+00   8.007E+02
   6.480E-07  -8.062E-10   4.773E-09  -5.000E+00   8.007E+02
   6.490E-07  -8.062E-10   4.773E-09  -5.000E+00   8.007E+02
   6.500E-07  -8.062E-10   4.773E-09  -5.000E+00   8.007E+02
   6.510E-07  -8.062E-10   4.773E-09  -5.000E+00   8.007E+02
   6.520E-07  -8.062E-10   4.773E-09  -5.000E+00   8.007E+02
   6.530E-07  -8.062E-10   4.773E-09  -5.000E+00   8.007E+02
   6.540E-07  -8.062E-10   4.773E-09  -5.000E+00   8.007E+02
   6.550E-07  -8.062E-10   4.773E-09  -5.000E+00   8.007E+02
   6.560E-07  -8.062E-10   4.773E-09  -5.000E+00   8.007E+02
   6.570E-07  -8.062E-10   4.773E-09  -5.000E+00   8.007E+02
   6.580E-07  -8.062E-10   4.773E-09  -5.000E+00   8.007E+02
   6.590E-07  -8.062E-10   4.773E-09  -5.000E+00   8.007E+02
   6.600E-07  -8.062E-10   4.773E-09  -5.000E+00   8.007E+02
   6.610E-07  -8.062E-10   4.773E-09  -5.000E+00   8.007E+02
   6.620E-07  -8.062E-10   4.773E-09  -5.000E+00   8.007E+02
   6.630E-07  -8.062E-10   4.773E-09  -5.000E+00   8.007E+02
   6.640E-07  -8.062E-10   4.773E-09  -5.000E+00   8.007E+02
   6.650E-07  -8.062E-10   4.773E-09  -5.000E+00   8.007E+02
   6.660E-07  -8.062E-10   4.773E-09  -5.000E+00   8.007E+02
   6.670E-07  -8.062E-10   4.773E-09  -5.000E+00   8.007E+02
   6.680E-07  -8.062E-10   4.773E-09  -5.000E+00   8.007E+02
   6.690E-07  -8.062E-10   4.773E-09  -5.000E+00   8.007E+02
   6.700E-07  -8.062E-10   4.773E-09  -5.000E+00   8.007E+02
   6.710E-07  -8.062E-10   4.773E-09  -5.000E+00   8.007E+02
   6.720E-07  -8.062E-10   4.773E-09  -5.000E+00   8.007E+02
   6.730E-07  -8.062E-10   4.773E-09  -5.000E+00   8.007E+02
   6.740E-07  -8.062E-10   4.773E-09  -5.000E+00   8.007E+02
   6.750E-07  -8.062E-10   4.773E-09  -5.000E+00   8.007E+02
   6.760E-07  -8.062E-10   4.773E-09  -5.000E+00   8.007E+02
   6.770E-07  -8.062E-10   4.773E-09  -5.000E+00   8.007E+02
   6.780E-07  -8.062E-10   4.773E-09  -5.000E+00   8.007E+02
   6.790E-07  -8.062E-10   4.773E-09  -5.000E+00   8.007E+02
   6.800E-07  -8.062E-10   4.773E-09  -5.000E+00   8.007E+02
   6.810E-07  -8.062E-10   4.773E-09  -5.000E+00   8.007E+02
   6.820E-07  -8.062E-10   4.773E-09  -5.000E+00   8.007E+02
   6.830E-07  -8.062E-10   4.773E-09  -5.000E+00   8.007E+02
   6.840E-07  -8.062E-10   4.773E-09  -5.000E+00   8.007E+02
   6.850E-07  -8.062E-10   4.773E-09  -5.000E+00   8.007E+02
   6.860E-07  -8.062E-10   4.773E-09  -5.000E+00   8.007E+02
   6.870E-07  -8.062E-10   4.773E-09  -5.000E+00   8.007E+02
   6.880E-07  -8.062E-10   4.773E-09  -5.000E+00   8.007E+02
   6.890E-07  -8.062E-10   4.773E-09  -5.000E+00   8.007E+02
   6.900E-07  -8.062E-10   4.773E-09  -5.000E+00   8.007E+02
   6.910E-07  -8.062E-10   4.773E-09  -5.000E+00   8.007E+02
   6.920E-07  -8.062E-10   4.773E-09  -5.000E+00   8.007E+02
   6.930E-07  -8.062E-10   4.773E-09  -5.000E+00   8.007E+02
   6.940E-07  -8.062E-10   4.773E-09  -5.000E+00   8.007E+02
   6.950E-07  -8.062E-10   4.773E-09  -5.000E+00   8.007E+02
   6.960E-07  -8.062E-10   4.773E-09  -5.000E+00   8.007E+02
   6.970E-07  -8.062E-10   4.773E-09  -5.000E+00   8.007E+02
   6.980E-07  -8.062E-10   4.773E-09  -5.000E+00   8.007E+02
   6.990E-07  -8.062E-10   4.773E-09  -5.000E+00   8.007E+02
   7.000E-07  -8.062E-10   4.773E-09  -5.000E+00   8.007E+02
   7.010E-07  -8.062E-10   4.773E-09  -5.000E+00   8.007E+02
   7.020E-07  -8.062E-10   4.773E-09  -5.000E+00   8.007E+02
   7.030E-07  -8.062E-10   4.773E-09  -5.000E+00   8.007E+02
   7.040E-07  -8.062E-10   4.773E-09  -5.000E+00   8.007E+02
   7.050E-07  -8.062E-10   4.773E-09  -5.000E+00   8.007E+02
   7.060E-07  -8.062E-10   4.773E-09  -5.000E+00   8.007E+02
   7.070E-07  -8.062E-10   4.773E-09  -5.000E+00   8.007E+02
   7.080E-07  -8.062E-10   4.773E-09  -5.000E+00   8.007E+02
   7.090E-07  -8.062E-10   4.773E-09  -5.000E+00   8.007E+02
   7.100E-07  -8.062E-10   4.773E-09  -5.000E+00   8.007E+02
   7.110E-07  -8.062E-10   4.773E-09  -5.000E+00   8.007E+02
   7.120E-07  -8.062E-10   4.773E-09  -5.000E+00   8.007E+02
   7.130E-07  -8.062E-10   4.773E-09  -5.000E+00   8.007E+02
   7.140E-07  -8.062E-10   4.773E-09  -5.000E+00   8.007E+02
   7.150E-07  -8.062E-10   4.773E-09  -5.000E+00   8.007E+02
   7.160E-07  -8.062E-10   4.773E-09  -5.000E+00   8.007E+02
   7.170E-07  -8.062E-10   4.773E-09  -5.000E+00   8.007E+02
   7.180E-07  -8.062E-10   4.773E-09  -5.000E+00   8.007E+02
   7.190E-07  -8.062E-10   4.773E-09  -5.000E+00   8.007E+02
   7.200E-07  -8.062E-10   4.773E-09  -5.000E+00   8.007E+02
   7.210E-07  -8.062E-10   4.773E-09  -5.000E+00   8.007E+02
   7.220E-07  -8.062E-10   4.773E-09  -5.000E+00   8.007E+02
   7.230E-07  -8.062E-10   4.773E-09  -5.000E+00   8.007E+02
   7.240E-07  -8.062E-10   4.773E-09  -5.000E+00   8.007E+02
   7.250E-07  -8.062E-10   4.773E-09  -5.000E+00   8.007E+02
   7.260E-07  -8.062E-10   4.773E-09  -5.000E+00   8.007E+02
   7.270E-07  -8.062E-10   4.773E-09  -5.000E+00   8.007E+02
   7.280E-07  -8.062E-10   4.773E-09  -5.000E+00   8.007E+02
   7.290E-07  -8.062E-10   4.773E-09  -5.000E+00   8.007E+02
   7.300E-07  -8.062E-10   4.773E-09  -5.000E+00   8.007E+02
   7.310E-07  -8.062E-10   4.773E-09  -5.000E+00   8.007E+02
   7.320E-07  -8.062E-10   4.773E-09  -5.000E+00   8.007E+02
   7.330E-07  -8.062E-10   4.773E-09  -5.000E+00   8.007E+02
   7.340E-07  -8.062E-10   4.773E-09  -5.000E+00   8.007E+02
   7.350E-07  -8.062E-10   4.773E-09  -5.000E+00   8.007E+02
   7.360E-07  -8.062E-10   4.773E-09  -5.000E+00   8.007E+02
   7.370E-07  -8.062E-10   4.773E-09  -5.000E+00   8.007E+02
   7.380E-07  -8.062E-10   4.773E-09  -5.000E+00   8.007E+02
   7.390E-07  -8.062E-10   4.773E-09  -5.000E+00   8.007E+02
   7.400E-07  -8.062E-10   4.773E-09  -5.000E+00   8.007E+02
   7.410E-07  -8.062E-10   4.773E-09  -5.000E+00   8.007E+02
   7.420E-07  -8.062E-10   4.773E-09  -5.000E+00   8.007E+02
   7.430E-07  -8.062E-10   4.773E-09  -5.000E+00   8.007E+02
   7.440E-07  -8.062E-10   4.773E-09  -5.000E+00   8.007E+02
   7.450E-07  -8.062E-10   4.773E-09  -5.000E+00   8.007E+02
   7.460E-07  -8.062E-10   4.773E-09  -5.000E+00   8.007E+02
   7.470E-07  -8.062E-10   4.773E-09  -5.000E+00   8.007E+02
   7.480E-07  -8.062E-10   4.773E-09  -5.000E+00   8.007E+02
   7.490E-07  -8.062E-10   4.773E-09  -5.000E+00   8.007E+02
   7.500E-07  -8.062E-10   4.773E-09  -5.000E+00   8.007E+02
   7.510E-07  -8.062E-10   4.773E-09  -5.000E+00   8.007E+02
   7.520E-07  -8.062E-10   4.773E-09  -5.000E+00   8.007E+02
   7.530E-07  -8.062E-10   4.773E-09  -5.000E+00   8.007E+02
   7.540E-07  -8.062E-10   4.773E-09  -5.000E+00   8.007E+02
   7.550E-07  -8.062E-10   4.773E-09  -5.000E+00   8.007E+02
   7.560E-07  -8.062E-10   4.773E-09  -5.000E+00   8.007E+02
   7.570E-07  -8.062E-10   4.773E-09  -5.000E+00   8.007E+02
   7.580E-07  -8.062E-10   4.773E-09  -5.000E+00   8.007E+02
   7.590E-07  -8.062E-10   4.773E-09  -5.000E+00   8.007E+02
   7.600E-07  -8.062E-10   4.773E-09  -5.000E+00   8.007E+02
   7.610E-07  -8.062E-10   4.773E-09  -5.000E+00   8.007E+02
   7.620E-07  -8.062E-10   4.773E-09  -5.000E+00   8.007E+02
   7.630E-07  -8.062E-10   4.773E-09  -5.000E+00   8.007E+02
   7.640E-07  -8.062E-10   4.773E-09  -5.000E+00   8.007E+02
   7.650E-07  -8.062E-10   4.773E-09  -5.000E+00   8.007E+02
   7.660E-07  -8.062E-10   4.773E-09  -5.000E+00   8.007E+02
   7.670E-07  -8.062E-10   4.773E-09  -5.000E+00   8.007E+02
   7.680E-07  -8.062E-10   4.773E-09  -5.000E+00   8.007E+02
   7.690E-07  -8.062E-10   4.773E-09  -5.000E+00   8.007E+02
   7.700E-07  -8.062E-10   4.773E-09  -5.000E+00   8.007E+02
   7.710E-07  -8.062E-10   4.773E-09  -5.000E+00   8.007E+02
   7.720E-07  -8.062E-10   4.773E-09  -5.000E+00   8.007E+02
   7.730E-07  -8.062E-10   4.773E-09  -5.000E+00   8.007E+02
   7.740E-07  -8.062E-10   4.773E-09  -5.000E+00   8.007E+02
   7.750E-07  -8.062E-10   4.773E-09  -5.000E+00   8.007E+02
   7.760E-07  -8.062E-10   4.773E-09  -5.000E+00   8.007E+02
   7.770E-07  -8.062E-10   4.773E-09  -5.000E+00   8.007E+02
   7.780E-07  -8.062E-10   4.773E-09  -5.000E+00   8.007E+02
   7.790E-07  -8.062E-10   4.773E-09  -5.000E+00   8.007E+02
   7.800E-07  -8.062E-10   4.773E-09  -5.000E+00   8.007E+02
   7.810E-07  -8.062E-10   4.773E-09  -5.000E+00   8.007E+02
   7.820E-07  -8.062E-10   4.773E-09  -5.000E+00   8.007E+02
   7.830E-07  -8.062E-10   4.773E-09  -5.000E+00   8.007E+02
   7.840E-07  -8.062E-10   4.773E-09  -5.000E+00   8.007E+02
   7.850E-07  -8.062E-10   4.773E-09  -5.000E+00   8.007E+02
   7.860E-07  -8.062E-10   4.773E-09  -5.000E+00   8.007E+02
   7.870E-07  -8.062E-10   4.773E-09  -5.000E+00   8.007E+02
   7.880E-07  -8.062E-10   4.773E-09  -5.000E+00   8.007E+02
   7.890E-07  -8.062E-10   4.773E-09  -5.000E+00   8.007E+02
   7.900E-07  -8.062E-10   4.773E-09  -5.000E+00   8.007E+02
   7.910E-07  -8.062E-10   4.773E-09  -5.000E+00   8.007E+02
   7.920E-07  -8.062E-10   4.773E-09  -5.000E+00   8.007E+02
   7.930E-07  -8.062E-10   4.773E-09  -5.000E+00   8.007E+02
   7.940E-07  -8.062E-10   4.773E-09  -5.000E+00   8.007E+02
   7.950E-07  -8.062E-10   4.773E-09  -5.000E+00   8.007E+02
   7.960E-07  -8.062E-10   4.773E-09  -5.000E+00   8.007E+02
   7.970E-07  -8.062E-10   4.773E-09  -5.000E+00   8.007E+02
   7.980E-07  -8.062E-10   4.773E-09  -5.000E+00   8.007E+02
   7.990E-07  -8.062E-10   4.773E-09  -5.000E+00   8.007E+02
   8.000E-07  -8.062E-10   4.773E-09  -5.000E+00   8.007E+02
   8.010E-07  -8.062E-10   4.773E-09  -5.000E+00   8.007E+02
   8.020E-07  -8.062E-10   4.773E-09  -5.000E+00   8.007E+02
   8.030E-07  -8.062E-10   4.773E-09  -5.000E+00   8.007E+02
   8.040E-07  -8.062E-10   4.773E-09  -5.000E+00   8.007E+02
   8.050E-07  -8.062E-10   4.773E-09  -5.000E+00   8.007E+02
   8.060E-07  -8.062E-10   4.773E-09  -5.000E+00   8.007E+02
   8.070E-07  -8.062E-10   4.773E-09  -5.000E+00   8.007E+02
   8.080E-07  -8.062E-10   4.773E-09  -5.000E+00   8.007E+02
   8.090E-07  -8.062E-10   4.773E-09  -5.000E+00   8.007E+02
   8.100E-07  -8.062E-10   4.773E-09  -5.000E+00   8.007E+02
   8.110E-07  -8.062E-10   4.773E-09  -5.000E+00   8.007E+02
   8.120E-07  -8.062E-10   4.773E-09  -5.000E+00   8.007E+02
   8.130E-07  -8.062E-10   4.773E-09  -5.000E+00   8.007E+02
   8.140E-07  -8.062E-10   4.773E-09  -5.000E+00   8.007E+02
   8.150E-07  -8.062E-10   4.773E-09  -5.000E+00   8.007E+02
   8.160E-07  -8.062E-10   4.773E-09  -5.000E+00   8.007E+02
   8.170E-07  -8.062E-10   4.773E-09  -5.000E+00   8.007E+02
   8.180E-07  -8.062E-10   4.773E-09  -5.000E+00   8.007E+02
   8.190E-07  -8.062E-10   4.773E-09  -5.000E+00   8.007E+02
   8.200E-07  -8.062E-10   4.773E-09  -5.000E+00   8.007E+02
   8.210E-07  -8.062E-10   4.773E-09  -5.000E+00   8.007E+02
   8.220E-07  -8.062E-10   4.773E-09  -5.000E+00   8.007E+02
   8.230E-07  -8.062E-10   4.773E-09  -5.000E+00   8.007E+02
   8.240E-07  -8.062E-10   4.773E-09  -5.000E+00   8.007E+02
   8.250E-07  -8.062E-10   4.773E-09  -5.000E+00   8.007E+02
   8.260E-07  -8.062E-10   4.773E-09  -5.000E+00   8.007E+02
   8.270E-07  -8.062E-10   4.773E-09  -5.000E+00   8.007E+02
   8.280E-07  -8.062E-10   4.773E-09  -5.000E+00   8.007E+02
   8.290E-07  -8.062E-10   4.773E-09  -5.000E+00   8.007E+02
   8.300E-07  -8.062E-10   4.773E-09  -5.000E+00   8.007E+02
   8.310E-07  -8.062E-10   4.773E-09  -5.000E+00   8.007E+02
   8.320E-07  -8.062E-10   4.773E-09  -5.000E+00   8.007E+02
   8.330E-07  -8.062E-10   4.773E-09  -5.000E+00   8.007E+02
   8.340E-07  -8.062E-10   4.773E-09  -5.000E+00   8.007E+02
   8.350E-07  -8.062E-10   4.773E-09  -5.000E+00   8.007E+02
   8.360E-07  -8.062E-10   4.773E-09  -5.000E+00   8.007E+02
   8.370E-07  -8.062E-10   4.773E-09  -5.000E+00   8.007E+02
   8.380E-07  -8.062E-10   4.773E-09  -5.000E+00   8.007E+02
   8.390E-07  -8.062E-10   4.773E-09  -5.000E+00   8.007E+02
   8.400E-07  -8.062E-10   4.773E-09  -5.000E+00   8.007E+02
   8.410E-07  -8.062E-10   4.773E-09  -5.000E+00   8.007E+02
   8.420E-07  -8.062E-10   4.773E-09  -5.000E+00   8.007E+02
   8.430E-07  -8.062E-10   4.773E-09  -5.000E+00   8.007E+02
   8.440E-07  -8.062E-10   4.773E-09  -5.000E+00   8.007E+02
   8.450E-07  -8.062E-10   4.773E-09  -5.000E+00   8.007E+02
   8.460E-07  -8.062E-10   4.773E-09  -5.000E+00   8.007E+02
   8.470E-07  -8.062E-10   4.773E-09  -5.000E+00   8.007E+02
   8.480E-07  -8.062E-10   4.773E-09  -5.000E+00   8.007E+02
   8.490E-07  -8.062E-10   4.773E-09  -5.000E+00   8.007E+02
   8.500E-07  -8.062E-10   4.773E-09  -5.000E+00   8.007E+02
   8.510E-07  -8.062E-10   4.773E-09  -5.000E+00   8.007E+02
   8.520E-07  -8.062E-10   4.773E-09  -5.000E+00   8.007E+02
   8.530E-07  -8.062E-10   4.773E-09  -5.000E+00   8.007E+02
   8.540E-07  -8.062E-10   4.773E-09  -5.000E+00   8.007E+02
   8.550E-07  -8.062E-10   4.773E-09  -5.000E+00   8.007E+02
   8.560E-07  -8.062E-10   4.773E-09  -5.000E+00   8.007E+02
   8.570E-07  -8.062E-10   4.773E-09  -5.000E+00   8.007E+02
   8.580E-07  -8.062E-10   4.773E-09  -5.000E+00   8.007E+02
   8.590E-07  -8.062E-10   4.773E-09  -5.000E+00   8.007E+02
   8.600E-07  -8.062E-10   4.773E-09  -5.000E+00   8.007E+02
   8.610E-07  -8.062E-10   4.773E-09  -5.000E+00   8.007E+02
   8.620E-07  -8.062E-10   4.773E-09  -5.000E+00   8.007E+02
   8.630E-07  -8.062E-10   4.773E-09  -5.000E+00   8.007E+02
   8.640E-07  -8.062E-10   4.773E-09  -5.000E+00   8.007E+02
   8.650E-07  -8.062E-10   4.773E-09  -5.000E+00   8.007E+02
   8.660E-07  -8.062E-10   4.773E-09  -5.000E+00   8.007E+02
   8.670E-07  -8.062E-10   4.773E-09  -5.000E+00   8.007E+02
   8.680E-07  -8.062E-10   4.773E-09  -5.000E+00   8.007E+02
   8.690E-07  -8.062E-10   4.773E-09  -5.000E+00   8.007E+02
   8.700E-07  -8.062E-10   4.773E-09  -5.000E+00   8.007E+02
   8.710E-07  -8.062E-10   4.773E-09  -5.000E+00   8.007E+02
   8.720E-07  -8.062E-10   4.773E-09  -5.000E+00   8.007E+02
   8.730E-07  -8.062E-10   4.773E-09  -5.000E+00   8.007E+02
   8.740E-07  -8.062E-10   4.773E-09  -5.000E+00   8.007E+02
   8.750E-07  -8.062E-10   4.773E-09  -5.000E+00   8.007E+02
   8.760E-07  -8.062E-10   4.773E-09  -5.000E+00   8.007E+02
   8.770E-07  -8.062E-10   4.773E-09  -5.000E+00   8.007E+02
   8.780E-07  -8.062E-10   4.773E-09  -5.000E+00   8.007E+02
   8.790E-07  -8.062E-10   4.773E-09  -5.000E+00   8.007E+02
   8.800E-07  -8.062E-10   4.773E-09  -5.000E+00   8.007E+02
   8.810E-07  -8.062E-10   4.773E-09  -5.000E+00   8.007E+02
   8.820E-07  -8.062E-10   4.773E-09  -5.000E+00   8.007E+02
   8.830E-07  -8.062E-10   4.773E-09  -5.000E+00   8.007E+02
   8.840E-07  -8.062E-10   4.773E-09  -5.000E+00   8.007E+02
   8.850E-07  -8.062E-10   4.773E-09  -5.000E+00   8.007E+02
   8.860E-07  -8.062E-10   4.773E-09  -5.000E+00   8.007E+02
   8.870E-07  -8.062E-10   4.773E-09  -5.000E+00   8.007E+02
   8.880E-07  -8.062E-10   4.773E-09  -5.000E+00   8.007E+02
   8.890E-07  -8.062E-10   4.773E-09  -5.000E+00   8.007E+02
   8.900E-07  -8.062E-10   4.773E-09  -5.000E+00   8.007E+02
   8.910E-07  -8.062E-10   4.773E-09  -5.000E+00   8.007E+02
   8.920E-07  -8.062E-10   4.773E-09  -5.000E+00   8.007E+02
   8.930E-07  -8.062E-10   4.773E-09  -5.000E+00   8.007E+02
   8.940E-07  -8.062E-10   4.773E-09  -5.000E+00   8.007E+02
   8.950E-07  -8.062E-10   4.773E-09  -5.000E+00   8.007E+02
   8.960E-07  -8.062E-10   4.773E-09  -5.000E+00   8.007E+02
   8.970E-07  -8.062E-10   4.773E-09  -5.000E+00   8.007E+02
   8.980E-07  -8.062E-10   4.773E-09  -5.000E+00   8.007E+02
   8.990E-07  -8.062E-10   4.773E-09  -5.000E+00   8.007E+02
   9.000E-07  -8.062E-10   4.773E-09  -5.000E+00   8.007E+02
   9.010E-07  -8.062E-10   4.773E-09  -5.000E+00   8.007E+02
   9.020E-07  -8.062E-10   4.773E-09  -5.000E+00   8.007E+02
   9.030E-07  -8.062E-10   4.773E-09  -5.000E+00   8.007E+02
   9.040E-07  -8.062E-10   4.773E-09  -5.000E+00   8.007E+02
   9.050E-07  -8.062E-10   4.773E-09  -5.000E+00   8.007E+02
   9.060E-07  -8.062E-10   4.773E-09  -5.000E+00   8.007E+02
   9.070E-07  -8.062E-10   4.773E-09  -5.000E+00   8.007E+02
   9.080E-07  -8.062E-10   4.773E-09  -5.000E+00   8.007E+02
   9.090E-07  -8.062E-10   4.773E-09  -5.000E+00   8.007E+02
   9.100E-07  -8.062E-10   4.773E-09  -5.000E+00   8.007E+02
   9.110E-07  -8.062E-10   4.773E-09  -5.000E+00   8.007E+02
   9.120E-07  -8.062E-10   4.773E-09  -5.000E+00   8.007E+02
   9.130E-07  -8.062E-10   4.773E-09  -5.000E+00   8.007E+02
   9.140E-07  -8.062E-10   4.773E-09  -5.000E+00   8.007E+02
   9.150E-07  -8.062E-10   4.773E-09  -5.000E+00   8.007E+02
   9.160E-07  -8.062E-10   4.773E-09  -5.000E+00   8.007E+02
   9.170E-07  -8.062E-10   4.773E-09  -5.000E+00   8.007E+02
   9.180E-07  -8.062E-10   4.773E-09  -5.000E+00   8.007E+02
   9.190E-07  -8.062E-10   4.773E-09  -5.000E+00   8.007E+02
   9.200E-07  -8.062E-10   4.773E-09  -5.000E+00   8.007E+02
   9.210E-07  -8.062E-10   4.773E-09  -5.000E+00   8.007E+02
   9.220E-07  -8.062E-10   4.773E-09  -5.000E+00   8.007E+02
   9.230E-07  -8.062E-10   4.773E-09  -5.000E+00   8.007E+02
   9.240E-07  -8.062E-10   4.773E-09  -5.000E+00   8.007E+02
   9.250E-07  -8.062E-10   4.773E-09  -5.000E+00   8.007E+02
   9.260E-07  -8.062E-10   4.773E-09  -5.000E+00   8.007E+02
   9.270E-07  -8.062E-10   4.773E-09  -5.000E+00   8.007E+02
   9.280E-07  -8.062E-10   4.773E-09  -5.000E+00   8.007E+02
   9.290E-07  -8.062E-10   4.773E-09  -5.000E+00   8.007E+02
   9.300E-07  -8.062E-10   4.773E-09  -5.000E+00   8.007E+02
   9.310E-07  -8.062E-10   4.773E-09  -5.000E+00   8.007E+02
   9.320E-07  -8.062E-10   4.773E-09  -5.000E+00   8.007E+02
   9.330E-07  -8.062E-10   4.773E-09  -5.000E+00   8.007E+02
   9.340E-07  -8.062E-10   4.773E-09  -5.000E+00   8.007E+02
   9.350E-07  -8.062E-10   4.773E-09  -5.000E+00   8.007E+02
   9.360E-07  -8.062E-10   4.773E-09  -5.000E+00   8.007E+02
   9.370E-07  -8.062E-10   4.773E-09  -5.000E+00   8.007E+02
   9.380E-07  -8.062E-10   4.773E-09  -5.000E+00   8.007E+02
   9.390E-07  -8.062E-10   4.773E-09  -5.000E+00   8.007E+02
   9.400E-07  -8.062E-10   4.773E-09  -5.000E+00   8.007E+02
   9.410E-07  -8.062E-10   4.773E-09  -5.000E+00   8.007E+02
   9.420E-07  -8.062E-10   4.773E-09  -5.000E+00   8.007E+02
   9.430E-07  -8.062E-10   4.773E-09  -5.000E+00   8.007E+02
   9.440E-07  -8.062E-10   4.773E-09  -5.000E+00   8.007E+02
   9.450E-07  -8.062E-10   4.773E-09  -5.000E+00   8.007E+02
   9.460E-07  -8.062E-10   4.773E-09  -5.000E+00   8.007E+02
   9.470E-07  -8.062E-10   4.773E-09  -5.000E+00   8.007E+02
   9.480E-07  -8.062E-10   4.773E-09  -5.000E+00   8.007E+02
   9.490E-07  -8.062E-10   4.773E-09  -5.000E+00   8.007E+02
   9.500E-07  -8.062E-10   4.773E-09  -5.000E+00   8.007E+02
   9.510E-07  -8.062E-10   4.773E-09  -5.000E+00   8.007E+02
   9.520E-07  -8.062E-10   4.773E-09  -5.000E+00   8.007E+02
   9.530E-07  -8.062E-10   4.773E-09  -5.000E+00   8.007E+02
   9.540E-07  -8.062E-10   4.773E-09  -5.000E+00   8.007E+02
   9.550E-07  -8.062E-10   4.773E-09  -5.000E+00   8.007E+02
   9.560E-07  -8.062E-10   4.773E-09  -5.000E+00   8.007E+02
   9.570E-07  -8.062E-10   4.773E-09  -5.000E+00   8.007E+02
   9.580E-07  -8.062E-10   4.773E-09  -5.000E+00   8.007E+02
   9.590E-07  -8.062E-10   4.773E-09  -5.000E+00   8.007E+02
   9.600E-07  -8.062E-10   4.773E-09  -5.000E+00   8.007E+02
   9.610E-07  -8.062E-10   4.773E-09  -5.000E+00   8.007E+02
   9.620E-07  -8.062E-10   4.773E-09  -5.000E+00   8.007E+02
   9.630E-07  -8.062E-10   4.773E-09  -5.000E+00   8.007E+02
   9.640E-07  -8.062E-10   4.773E-09  -5.000E+00   8.007E+02
   9.650E-07  -8.062E-10   4.773E-09  -5.000E+00   8.007E+02
   9.660E-07  -8.062E-10   4.773E-09  -5.000E+00   8.007E+02
   9.670E-07  -8.062E-10   4.773E-09  -5.000E+00   8.007E+02
   9.680E-07  -8.062E-10   4.773E-09  -5.000E+00   8.007E+02
   9.690E-07  -8.062E-10   4.773E-09  -5.000E+00   8.007E+02
   9.700E-07  -8.062E-10   4.773E-09  -5.000E+00   8.007E+02
   9.710E-07  -8.062E-10   4.773E-09  -5.000E+00   8.007E+02
   9.720E-07  -8.062E-10   4.773E-09  -5.000E+00   8.007E+02
   9.730E-07  -8.062E-10   4.773E-09  -5.000E+00   8.007E+02
   9.740E-07  -8.062E-10   4.773E-09  -5.000E+00   8.007E+02
   9.750E-07  -8.062E-10   4.773E-09  -5.000E+00   8.007E+02
   9.760E-07  -8.062E-10   4.773E-09  -5.000E+00   8.007E+02
   9.770E-07  -8.062E-10   4.773E-09  -5.000E+00   8.007E+02
   9.780E-07  -8.062E-10   4.773E-09  -5.000E+00   8.007E+02
   9.790E-07  -8.062E-10   4.773E-09  -5.000E+00   8.007E+02
   9.800E-07  -8.062E-10   4.773E-09  -5.000E+00   8.007E+02
   9.810E-07  -8.062E-10   4.773E-09  -5.000E+00   8.007E+02
   9.820E-07  -8.062E-10   4.773E-09  -5.000E+00   8.007E+02
   9.830E-07  -8.062E-10   4.773E-09  -5.000E+00   8.007E+02
   9.840E-07  -8.062E-10   4.773E-09  -5.000E+00   8.007E+02
   9.850E-07  -8.062E-10   4.773E-09  -5.000E+00   8.007E+02
   9.860E-07  -8.062E-10   4.773E-09  -5.000E+00   8.007E+02
   9.870E-07  -8.062E-10   4.773E-09  -5.000E+00   8.007E+02
   9.880E-07  -8.062E-10   4.773E-09  -5.000E+00   8.007E+02
   9.890E-07  -8.062E-10   4.773E-09  -5.000E+00   8.007E+02
   9.900E-07  -8.062E-10   4.773E-09  -5.000E+00   8.007E+02
   9.910E-07  -8.062E-10   4.773E-09  -5.000E+00   8.007E+02
   9.920E-07  -8.062E-10   4.773E-09  -5.000E+00   8.007E+02
   9.930E-07  -8.062E-10   4.773E-09  -5.000E+00   8.007E+02
   9.940E-07  -8.062E-10   4.773E-09  -5.000E+00   8.007E+02
   9.950E-07  -8.062E-10   4.773E-09  -5.000E+00   8.007E+02
   9.960E-07  -8.062E-10   4.773E-09  -5.000E+00   8.007E+02
   9.970E-07  -8.062E-10   4.773E-09  -5.000E+00   8.007E+02
   9.980E-07  -8.062E-10   4.773E-09  -5.000E+00   8.007E+02
   9.990E-07  -8.062E-10   4.773E-09  -5.000E+00   8.007E+02
   1.000E-06  -3.553E-10   4.773E-09  -5.000E+00   8.007E+02
   1.001E-06   2.160E-01  -1.492E-03  -4.892E+00   8.007E+02
   1.002E-06   4.372E-01  -3.067E-03  -4.584E+00   8.007E+02
   1.003E-06   6.399E-01  -4.492E-03  -4.092E+00   8.007E+02
   1.004E-06   8.248E-01  -5.784E-03  -3.424E+00   8.007E+02
   1.005E-06   9.934E-01  -6.961E-03  -2.595E+00   8.007E+02
   1.006E-06   1.147E+00  -8.037E-03  -1.619E+00   8.007E+02
   1.007E-06   1.287E+00  -9.020E-03  -5.083E-01   8.007E+02
   1.008E-06   1.415E+00  -9.919E-03   7.244E-01   8.007E+02
   1.009E-06   1.532E+00  -1.074E-02   2.069E+00   8.007E+02
   1.010E-06   1.640E+00  -1.149E-02   3.503E+00   8.007E+02
   1.011E-06   1.521E+00   8.267E-01   4.942E+00   8.007E+02
   1.012E-06   1.386E+00   4.439E+00   6.261E+00   8.007E+02
   1.013E-06   1.265E+00   1.038E+01   7.470E+00   8.007E+02
   1.014E-06   1.156E+00   1.694E+01   8.536E+00   7.935E+02
   1.015E-06   1.075E+00   2.000E+01   9.318E+00   7.553E+02
   1.016E-06   1.031E+00   2.000E+01   9.717E+00   6.789E+02
   1.017E-06   1.015E+00   2.000E+01   9.858E+00   5.841E+02
   1.018E-06   1.010E+00   2.000E+01   9.908E+00   4.858E+02
   1.019E-06   1.007E+00   2.000E+01   9.926E+00   3.919E+02
   1.020E-06   1.006E+00   2.000E+01   9.936E+00   3.061E+02
   1.021E-06   1.006E+00   2.000E+01   9.944E+00   2.296E+02
   1.022E-06   1.005E+00   2.000E+01   9.952E+00   1.634E+02
   1.023E-06   1.004E+00   2.000E+01   9.963E+00   1.078E+02
   1.024E-06   1.003E+00   2.000E+01   9.974E+00   6.178E+01
   1.025E-06   1.003E+00   2.000E+01   9.974E+00   2.879E+01
   1.026E-06   9.887E-01   2.000E+01   1.014E+01   9.271E+00
   1.027E-06   9.344E-01   2.000E+01   1.074E+01   2.831E+00
   1.028E-06   8.486E-01   2.000E+01   1.160E+01   1.953E+00
   1.029E-06   7.701E-01   2.000E+01   1.237E+01   1.887E+00
   1.030E-06   7.095E-01   2.000E+01   1.296E+01   1.769E+00
   1.031E-06   6.567E-01   2.000E+01   1.348E+01   1.642E+00
   1.032E-06   6.080E-01   2.000E+01   1.397E+01   1.539E+00
   1.033E-06   5.626E-01   2.000E+01   1.442E+01   1.457E+00
   1.034E-06   5.204E-01   2.000E+01   1.484E+01   1.391E+00
   1.035E-06   4.814E-01   2.000E+01   1.522E+01   1.335E+00
   1.036E-06   4.452E-01   2.000E+01   1.558E+01   1.289E+00
   1.037E-06   4.117E-01   2.000E+01   1.592E+01   1.249E+00
   1.038E-06   3.807E-01   2.000E+01   1.622E+01   1.215E+00
   1.039E-06   3.520E-01   2.000E+01   1.651E+01   1.186E+00
   1.040E-06   3.254E-01   2.000E+01   1.677E+01   1.160E+00
   1.041E-06   3.008E-01   2.000E+01   1.702E+01   1.138E+00
   1.042E-06   2.781E-01   2.000E+01   1.724E+01   1.118E+00
   1.043E-06   2.570E-01   2.000E+01   1.745E+01   1.101E+00
   1.044E-06   2.376E-01   2.000E+01   1.764E+01   1.085E+00
   1.045E-06   2.196E-01   2.000E+01   1.782E+01   1.071E+00
   1.046E-06   2.030E-01   2.000E+01   1.799E+01   1.059E+00
   1.047E-06   1.876E-01   2.000E+01   1.814E+01   1.048E+00
   1.048E-06   1.734E-01   2.000E+01   1.828E+01   1.038E+00
   1.049E-06   1.602E-01   2.000E+01   1.841E+01   1.029E+00
   1.050E-06   1.481E-01   2.000E+01   1.853E+01   1.021E+00
   1.051E-06   1.369E-01   2.000E+01   1.864E+01   1.014E+00
   1.052E-06   1.265E-01   2.000E+01   1.875E+01   1.007E+00
   1.053E-06   1.169E-01   2.000E+01   1.884E+01   1.001E+00
   1.054E-06   1.080E-01   2.000E+01   1.893E+01   9.953E-01
   1.055E-06   9.984E-02   2.000E+01   1.901E+01   9.903E-01
   1.056E-06   9.226E-02   2.000E+01   1.908E+01   9.858E-01
   1.057E-06   8.526E-02   2.000E+01   1.915E+01   9.816E-01
   1.058E-06   7.879E-02   2.000E+01   1.922E+01   9.778E-01
   1.059E-06   7.281E-02   2.000E+01   1.928E+01   9.743E-01
   1.060E-06   6.729E-02   2.000E+01   1.933E+01   9.711E-01
   1.061E-06   6.218E-02   2.000E+01   1.938E+01   9.682E-01
   1.062E-06   5.746E-02   2.000E+01   1.943E+01   9.655E-01
   1.063E-06   5.310E-02   2.000E+01   1.947E+01   9.631E-01
   1.064E-06   4.907E-02   2.000E+01   1.951E+01   9.608E-01
   1.065E-06   4.534E-02   2.000E+01   1.955E+01   9.587E-01
   1.066E-06   4.190E-02   2.000E+01   1.958E+01   9.568E-01
   1.067E-06   3.872E-02   2.000E+01   1.962E+01   9.551E-01
   1.068E-06   3.578E-02   2.000E+01   1.965E+01   9.535E-01
   1.069E-06   3.306E-02   2.000E+01   1.967E+01   9.520E-01
   1.070E-06   3.055E-02   2.000E+01   1.970E+01   9.507E-01
   1.071E-06   2.823E-02   2.000E+01   1.972E+01   9.494E-01
   1.072E-06   2.609E-02   2.000E+01   1.974E+01   9.483E-01
   1.073E-06   2.411E-02   2.000E+01   1.976E+01   9.472E-01
   1.074E-06   2.228E-02   2.000E+01   1.978E+01   9.462E-01
   1.075E-06   2.058E-02   2.000E+01   1.980E+01   9.453E-01
   1.076E-06   1.902E-02   2.000E+01   1.981E+01   9.445E-01
   1.077E-06   1.758E-02   2.000E+01   1.983E+01   9.437E-01
   1.078E-06   1.624E-02   2.000E+01   1.984E+01   9.430E-01
   1.079E-06   1.501E-02   2.000E+01   1.985E+01   9.424E-01
   1.080E-06   1.387E-02   2.000E+01   1.986E+01   9.418E-01
   1.081E-06   1.281E-02   2.000E+01   1.987E+01   9.412E-01
   1.082E-06   1.184E-02   2.000E+01   1.988E+01   9.407E-01
   1.083E-06   1.094E-02   2.000E+01   1.989E+01   9.402E-01
   1.084E-06   1.011E-02   2.000E+01   1.990E+01   9.398E-01
   1.085E-06   9.343E-03   2.000E+01   1.991E+01   9.394E-01
   1.086E-06   8.634E-03   2.000E+01   1.991E+01   9.390E-01
   1.087E-06   7.978E-03   2.000E+01   1.992E+01   9.387E-01
   1.088E-06   7.372E-03   2.000E+01   1.993E+01   9.384E-01
   1.089E-06   6.812E-03   2.000E+01   1.993E+01   9.381E-01
   1.090E-06   6.295E-03   2.000E+01   1.994E+01   9.378E-01
   1.091E-06   5.816E-03   2.000E+01   1.994E+01   9.376E-01
   1.092E-06   5.375E-03   2.000E+01   1.995E+01   9.373E-01
   1.093E-06   4.966E-03   2.000E+01   1.995E+01   9.371E-01
   1.094E-06   4.589E-03   2.000E+01   1.995E+01   9.369E-01
   1.095E-06   4.241E-03   2.000E+01   1.996E+01   9.368E-01
   1.096E-06   3.919E-03   2.000E+01   1.996E+01   9.366E-01
   1.097E-06   3.621E-03   2.000E+01   1.996E+01   9.364E-01
   1.098E-06   3.346E-03   2.000E+01   1.997E+01   9.363E-01
   1.099E-06   3.092E-03   2.000E+01   1.997E+01   9.362E-01
   1.100E-06   2.857E-03   2.000E+01   1.997E+01   9.360E-01
   1.101E-06   2.640E-03   2.000E+01   1.997E+01   9.359E-01
   1.102E-06   2.439E-03   2.000E+01   1.998E+01   9.358E-01
   1.103E-06   2.254E-03   2.000E+01   1.998E+01   9.357E-01
   1.104E-06   2.083E-03   2.000E+01   1.998E+01   9.356E-01
   1.105E-06   1.925E-03   2.000E+01   1.998E+01   9.356E-01
   1.106E-06   1.778E-03   2.000E+01   1.998E+01   9.355E-01
   1.107E-06   1.643E-03   2.000E+01   1.998E+01   9.354E-01
   1.108E-06   1.519E-03   2.000E+01   1.998E+01   9.353E-01
   1.109E-06   1.403E-03   2.000E+01   1.999E+01   9.353E-01
   1.110E-06   1.297E-03   2.000E+01   1.999E+01   9.352E-01
   1.111E-06   1.198E-03   2.000E+01   1.999E+01   9.352E-01
   1.112E-06   1.107E-03   2.000E+01   1.999E+01   9.351E-01
   1.113E-06   1.023E-03   2.000E+01   1.999E+01   9.351E-01
   1.114E-06   9.453E-04   2.000E+01   1.999E+01   9.351E-01
   1.115E-06   8.735E-04   2.000E+01   1.999E+01   9.350E-01
   1.116E-06   8.071E-04   2.000E+01   1.999E+01   9.350E-01
   1.117E-06   7.458E-04   2.000E+01   1.999E+01   9.349E-01
   1.118E-06   6.892E-04   2.000E+01   1.999E+01   9.349E-01
   1.119E-06   6.368E-04   2.000E+01   1.999E+01   9.349E-01
   1.120E-06   5.885E-04   2.000E+01   1.999E+01   9.349E-01
   1.121E-06   5.438E-04   2.000E+01   1.999E+01   9.348E-01
   1.122E-06   5.025E-04   2.000E+01   2.000E+01   9.348E-01
   1.123E-06   4.643E-04   2.000E+01   2.000E+01   9.348E-01
   1.124E-06   4.290E-04   2.000E+01   2.000E+01   9.348E-01
   1.125E-06   3.964E-04   2.000E+01   2.000E+01   9.348E-01
   1.126E-06   3.663E-04   2.000E+01   2.000E+01   9.348E-01
   1.127E-06   3.385E-04   2.000E+01   2.000E+01   9.347E-01
   1.128E-06   3.128E-04   2.000E+01   2.000E+01   9.347E-01
   1.129E-06   2.890E-04   2.000E+01   2.000E+01   9.347E-01
   1.130E-06   2.671E-04   2.000E+01   2.000E+01   9.347E-01
   1.131E-06   2.468E-04   2.000E+01   2.000E+01   9.347E-01
   1.132E-06   2.280E-04   2.000E+01   2.000E+01   9.347E-01
   1.133E-06   2.107E-04   2.000E+01   2.000E+01   9.347E-01
   1.134E-06   1.947E-04   2.000E+01   2.000E+01   9.347E-01
   1.135E-06   1.799E-04   2.000E+01   2.000E+01   9.347E-01
   1.136E-06   1.663E-04   2.000E+01   2.000E+01   9.347E-01
   1.137E-06   1.536E-04   2.000E+01   2.000E+01   9.346E-01
   1.138E-06   1.420E-04   2.000E+01   2.000E+01   9.346E-01
   1.139E-06   1.312E-04   2.000E+01   2.000E+01   9.346E-01
   1.140E-06   1.212E-04   2.000E+01   2.000E+01   9.346E-01
   1.141E-06   1.120E-04   2.000E+01   2.000E+01   9.346E-01
   1.142E-06   1.035E-04   2.000E+01   2.000E+01   9.346E-01
   1.143E-06   9.563E-05   2.000E+01   2.000E+01   9.346E-01
   1.144E-06   8.837E-05   2.000E+01   2.000E+01   9.346E-01
   1.145E-06   8.165E-05   2.000E+01   2.000E+01   9.346E-01
   1.146E-06   7.545E-05   2.000E+01   2.000E+01   9.346E-01
   1.147E-06   6.972E-05   2.000E+01   2.000E+01   9.346E-01
   1.148E-06   6.442E-05   2.000E+01   2.000E+01   9.346E-01
   1.149E-06   5.953E-05   2.000E+01   2.000E+01   9.346E-01
   1.150E-06   5.501E-05   2.000E+01   2.000E+01   9.346E-01
   1.151E-06   5.083E-05   2.000E+01   2.000E+01   9.346E-01
   1.152E-06   4.697E-05   2.000E+01   2.000E+01   9.346E-01
   1.153E-06   4.340E-05   2.000E+01   2.000E+01   9.346E-01
   1.154E-06   4.010E-05   2.000E+01   2.000E+01   9.346E-01
   1.155E-06   3.706E-05   2.000E+01   2.000E+01   9.346E-01
   1.156E-06   3.424E-05   2.000E+01   2.000E+01   9.346E-01
   1.157E-06   3.164E-05   2.000E+01   2.000E+01   9.346E-01
   1.158E-06   2.924E-05   2.000E+01   2.000E+01   9.346E-01
   1.159E-06   2.702E-05   2.000E+01   2.000E+01   9.346E-01
   1.160E-06   2.497E-05   2.000E+01   2.000E+01   9.346E-01
   1.161E-06   2.307E-05   2.000E+01   2.000E+01   9.346E-01
   1.162E-06   2.132E-05   2.000E+01   2.000E+01   9.346E-01
   1.163E-06   1.970E-05   2.000E+01   2.000E+01   9.346E-01
   1.164E-06   1.820E-05   2.000E+01   2.000E+01   9.346E-01
   1.165E-06   1.682E-05   2.000E+01   2.000E+01   9.346E-01
   1.166E-06   1.554E-05   2.000E+01   2.000E+01   9.346E-01
   1.167E-06   1.436E-05   2.000E+01   2.000E+01   9.346E-01
   1.168E-06   1.327E-05   2.000E+01   2.000E+01   9.346E-01
   1.169E-06   1.226E-05   2.000E+01   2.000E+01   9.346E-01
   1.170E-06   1.133E-05   2.000E+01   2.000E+01   9.346E-01
   1.171E-06   1.047E-05   2.000E+01   2.000E+01   9.346E-01
   1.172E-06   9.674E-06   2.000E+01   2.000E+01   9.346E-01
   1.173E-06   8.940E-06   2.000E+01   2.000E+01   9.346E-01
   1.174E-06   8.261E-06   2.000E+01   2.000E+01   9.346E-01
   1.175E-06   7.633E-06   2.000E+01   2.000E+01   9.346E-01
   1.176E-06   7.053E-06   2.000E+01   2.000E+01   9.346E-01
   1.177E-06   6.518E-06   2.000E+01   2.000E+01   9.346E-01
   1.178E-06   6.022E-06   2.000E+01   2.000E+01   9.346E-01
   1.179E-06   5.565E-06   2.000E+01   2.000E+01   9.346E-01
   1.180E-06   5.142E-06   2.000E+01   2.000E+01   9.346E-01
   1.181E-06   4.752E-06   2.000E+01   2.000E+01   9.346E-01
   1.182E-06   4.391E-06   2.000E+01   2.000E+01   9.346E-01
   1.183E-06   4.057E-06   2.000E+01   2.000E+01   9.346E-01
   1.184E-06   3.749E-06   2.000E+01   2.000E+01   9.346E-01
[...]
   5.685E-06  -8.062E-10   4.773E-09  -5.000E+00   8.007E+02
   5.686E-06  -8.062E-10   4.773E-09  -5.000E+00   8.007E+02
   5.687E-06  -8.062E-10   4.773E-09  -5.000E+00   8.007E+02
   5.688E-06  -8.062E-10   4.773E-09  -5.000E+00   8.007E+02
   5.689E-06  -8.062E-10   4.773E-09  -5.000E+00   8.007E+02
   5.690E-06  -8.062E-10   4.773E-09  -5.000E+00   8.007E+02
   5.691E-06  -8.062E-10   4.773E-09  -5.000E+00   8.007E+02
   5.692E-06  -8.062E-10   4.773E-09  -5.000E+00   8.007E+02
   5.693E-06  -8.062E-10   4.773E-09  -5.000E+00   8.007E+02
   5.694E-06  -8.062E-10   4.773E-09  -5.000E+00   8.007E+02
   5.695E-06  -8.062E-10   4.773E-09  -5.000E+00   8.007E+02
   5.696E-06  -8.062E-10   4.773E-09  -5.000E+00   8.007E+02
   5.697E-06  -8.062E-10   4.773E-09  -5.000E+00   8.007E+02
   5.698E-06  -8.062E-10   4.773E-09  -5.000E+00   8.007E+02
   5.699E-06  -8.062E-10   4.773E-09  -5.000E+00   8.007E+02
   5.700E-06  -8.062E-10   4.773E-09  -5.000E+00   8.007E+02
   5.701E-06  -8.062E-10   4.773E-09  -5.000E+00   8.007E+02
   5.702E-06  -8.062E-10   4.773E-09  -5.000E+00   8.007E+02
   5.703E-06  -8.062E-10   4.773E-09  -5.000E+00   8.007E+02
   5.704E-06  -8.062E-10   4.773E-09  -5.000E+00   8.007E+02
   5.705E-06  -8.062E-10   4.773E-09  -5.000E+00   8.007E+02
   5.706E-06  -8.062E-10   4.773E-09  -5.000E+00   8.007E+02
   5.707E-06  -8.062E-10   4.773E-09  -5.000E+00   8.007E+02
   5.708E-06  -8.062E-10   4.773E-09  -5.000E+00   8.007E+02
   5.709E-06  -8.062E-10   4.773E-09  -5.000E+00   8.007E+02
   5.710E-06  -8.062E-10   4.773E-09  -5.000E+00   8.007E+02
   5.711E-06  -8.062E-10   4.773E-09  -5.000E+00   8.007E+02
   5.712E-06  -8.062E-10   4.773E-09  -5.000E+00   8.007E+02
   5.713E-06  -8.062E-10   4.773E-09  -5.000E+00   8.007E+02
   5.714E-06  -8.062E-10   4.773E-09  -5.000E+00   8.007E+02
   5.715E-06  -8.062E-10   4.773E-09  -5.000E+00   8.007E+02
   5.716E-06  -8.062E-10   4.773E-09  -5.000E+00   8.007E+02
   5.717E-06  -8.062E-10   4.773E-09  -5.000E+00   8.007E+02
   5.718E-06  -8.062E-10   4.773E-09  -5.000E+00   8.007E+02
   5.719E-06  -8.062E-10   4.773E-09  -5.000E+00   8.007E+02
   5.720E-06  -8.062E-10   4.773E-09  -5.000E+00   8.007E+02
   5.721E-06  -8.062E-10   4.773E-09  -5.000E+00   8.007E+02
   5.722E-06  -8.062E-10   4.773E-09  -5.000E+00   8.007E+02
   5.723E-06  -8.062E-10   4.773E-09  -5.000E+00   8.007E+02
   5.724E-06  -8.062E-10   4.773E-09  -5.000E+00   8.007E+02
   5.725E-06  -8.062E-10   4.773E-09  -5.000E+00   8.007E+02
   5.726E-06  -8.062E-10   4.773E-09  -5.000E+00   8.007E+02
   5.727E-06  -8.062E-10   4.773E-09  -5.000E+00   8.007E+02
   5.728E-06  -8.062E-10   4.773E-09  -5.000E+00   8.007E+02
   5.729E-06  -8.062E-10   4.773E-09  -5.000E+00   8.007E+02
   5.730E-06  -8.062E-10   4.773E-09  -5.000E+00   8.007E+02
   5.731E-06  -8.062E-10   4.773E-09  -5.000E+00   8.007E+02
   5.732E-06  -8.062E-10   4.773E-09  -5.000E+00   8.007E+02
   5.733E-06  -8.062E-10   4.773E-09  -5.000E+00   8.007E+02
   5.734E-06  -8.062E-10   4.773E-09  -5.000E+00   8.007E+02
   5.735E-06  -8.062E-10   4.773E-09  -5.000E+00   8.007E+02
   5.736E-06  -8.062E-10   4.773E-09  -5.000E+00   8.007E+02
   5.737E-06  -8.062E-10   4.773E-09  -5.000E+00   8.007E+02
   5.738E-06  -8.062E-10   4.773E-09  -5.000E+00   8.007E+02
   5.739E-06  -8.062E-10   4.773E-09  -5.000E+00   8.007E+02
   5.740E-06  -8.062E-10   4.773E-09  -5.000E+00   8.007E+02
   5.741E-06  -8.062E-10   4.773E-09  -5.000E+00   8.007E+02
   5.742E-06  -8.062E-10   4.773E-09  -5.000E+00   8.007E+02
   5.743E-06  -8.062E-10   4.773E-09  -5.000E+00   8.007E+02
   5.744E-06  -8.062E-10   4.773E-09  -5.000E+00   8.007E+02
   5.745E-06  -8.062E-10   4.773E-09  -5.000E+00   8.007E+02
   5.746E-06  -8.062E-10   4.773E-09  -5.000E+00   8.007E+02
   5.747E-06  -8.062E-10   4.773E-09  -5.000E+00   8.007E+02
   5.748E-06  -8.062E-10   4.773E-09  -5.000E+00   8.007E+02
   5.749E-06  -8.062E-10   4.773E-09  -5.000E+00   8.007E+02
   5.750E-06  -8.062E-10   4.773E-09  -5.000E+00   8.007E+02
   5.751E-06  -8.062E-10   4.773E-09  -5.000E+00   8.007E+02
   5.752E-06  -8.062E-10   4.773E-09  -5.000E+00   8.007E+02
   5.753E-06  -8.062E-10   4.773E-09  -5.000E+00   8.007E+02
   5.754E-06  -8.062E-10   4.773E-09  -5.000E+00   8.007E+02
   5.755E-06  -8.062E-10   4.773E-09  -5.000E+00   8.007E+02
   5.756E-06  -8.062E-10   4.773E-09  -5.000E+00   8.007E+02
   5.757E-06  -8.062E-10   4.773E-09  -5.000E+00   8.007E+02
   5.758E-06  -8.062E-10   4.773E-09  -5.000E+00   8.007E+02
   5.759E-06  -8.062E-10   4.773E-09  -5.000E+00   8.007E+02
   5.760E-06  -8.062E-10   4.773E-09  -5.000E+00   8.007E+02
   5.761E-06  -8.062E-10   4.773E-09  -5.000E+00   8.007E+02
   5.762E-06  -8.062E-10   4.773E-09  -5.000E+00   8.007E+02
   5.763E-06  -8.062E-10   4.773E-09  -5.000E+00   8.007E+02
   5.764E-06  -8.062E-10   4.773E-09  -5.000E+00   8.007E+02
   5.765E-06  -8.062E-10   4.773E-09  -5.000E+00   8.007E+02
   5.766E-06  -8.062E-10   4.773E-09  -5.000E+00   8.007E+02
   5.767E-06  -8.062E-10   4.773E-09  -5.000E+00   8.007E+02
   5.768E-06  -8.062E-10   4.773E-09  -5.000E+00   8.007E+02
   5.769E-06  -8.062E-10   4.773E-09  -5.000E+00   8.007E+02
   5.770E-06  -8.062E-10   4.773E-09  -5.000E+00   8.007E+02
   5.771E-06  -8.062E-10   4.773E-09  -5.000E+00   8.007E+02
   5.772E-06  -8.062E-10   4.773E-09  -5.000E+00   8.007E+02
   5.773E-06  -8.062E-10   4.773E-09  -5.000E+00   8.007E+02
   5.774E-06  -8.062E-10   4.773E-09  -5.000E+00   8.007E+02
   5.775E-06  -8.062E-10   4.773E-09  -5.000E+00   8.007E+02
   5.776E-06  -8.062E-10   4.773E-09  -5.000E+00   8.007E+02
   5.777E-06  -8.062E-10   4.773E-09  -5.000E+00   8.007E+02
   5.778E-06  -8.062E-10   4.773E-09  -5.000E+00   8.007E+02
   5.779E-06  -8.062E-10   4.773E-09  -5.000E+00   8.007E+02
   5.780E-06  -8.062E-10   4.773E-09  -5.000E+00   8.007E+02
   5.781E-06  -8.062E-10   4.773E-09  -5.000E+00   8.007E+02
   5.782E-06  -8.062E-10   4.773E-09  -5.000E+00   8.007E+02
   5.783E-06  -8.062E-10   4.773E-09  -5.000E+00   8.007E+02
   5.784E-06  -8.062E-10   4.773E-09  -5.000E+00   8.007E+02
   5.785E-06  -8.062E-10   4.773E-09  -5.000E+00   8.007E+02
   5.786E-06  -8.062E-10   4.773E-09  -5.000E+00   8.007E+02
   5.787E-06  -8.062E-10   4.773E-09  -5.000E+00   8.007E+02
   5.788E-06  -8.062E-10   4.773E-09  -5.000E+00   8.007E+02
   5.789E-06  -8.062E-10   4.773E-09  -5.000E+00   8.007E+02
   5.790E-06  -8.062E-10   4.773E-09  -5.000E+00   8.007E+02
   5.791E-06  -8.062E-10   4.773E-09  -5.000E+00   8.007E+02
   5.792E-06  -8.062E-10   4.773E-09  -5.000E+00   8.007E+02
   5.793E-06  -8.062E-10   4.773E-09  -5.000E+00   8.007E+02
   5.794E-06  -8.062E-10   4.773E-09  -5.000E+00   8.007E+02
   5.795E-06  -8.062E-10   4.773E-09  -5.000E+00   8.007E+02
   5.796E-06  -8.062E-10   4.773E-09  -5.000E+00   8.007E+02
   5.797E-06  -8.062E-10   4.773E-09  -5.000E+00   8.007E+02
   5.798E-06  -8.062E-10   4.773E-09  -5.000E+00   8.007E+02
   5.799E-06  -8.062E-10   4.773E-09  -5.000E+00   8.007E+02
   5.800E-06  -8.062E-10   4.773E-09  -5.000E+00   8.007E+02
   5.801E-06  -8.062E-10   4.773E-09  -5.000E+00   8.007E+02
   5.802E-06  -8.062E-10   4.773E-09  -5.000E+00   8.007E+02
   5.803E-06  -8.062E-10   4.773E-09  -5.000E+00   8.007E+02
   5.804E-06  -8.062E-10   4.773E-09  -5.000E+00   8.007E+02
   5.805E-06  -8.062E-10   4.773E-09  -5.000E+00   8.007E+02
   5.806E-06  -8.062E-10   4.773E-09  -5.000E+00   8.007E+02
   5.807E-06  -8.062E-10   4.773E-09  -5.000E+00   8.007E+02
   5.808E-06  -8.062E-10   4.773E-09  -5.000E+00   8.007E+02
   5.809E-06  -8.062E-10   4.773E-09  -5.000E+00   8.007E+02
   5.810E-06  -8.062E-10   4.773E-09  -5.000E+00   8.007E+02
   5.811E-06  -8.062E-10   4.773E-09  -5.000E+00   8.007E+02
   5.812E-06  -8.062E-10   4.773E-09  -5.000E+00   8.007E+02
   5.813E-06  -8.062E-10   4.773E-09  -5.000E+00   8.007E+02
   5.814E-06  -8.062E-10   4.773E-09  -5.000E+00   8.007E+02
   5.815E-06  -8.062E-10   4.773E-09  -5.000E+00   8.007E+02
   5.816E-06  -8.062E-10   4.773E-09  -5.000E+00   8.007E+02
   5.817E-06  -8.062E-10   4.773E-09  -5.000E+00   8.007E+02
   5.818E-06  -8.062E-10   4.773E-09  -5.000E+00   8.007E+02
   5.819E-06  -8.062E-10   4.773E-09  -5.000E+00   8.007E+02
   5.820E-06  -8.062E-10   4.773E-09  -5.000E+00   8.007E+02
   5.821E-06  -8.062E-10   4.773E-09  -5.000E+00   8.007E+02
   5.822E-06  -8.062E-10   4.773E-09  -5.000E+00   8.007E+02
   5.823E-06  -8.062E-10   4.773E-09  -5.000E+00   8.007E+02
   5.824E-06  -8.062E-10   4.773E-09  -5.000E+00   8.007E+02
   5.825E-06  -8.062E-10   4.773E-09  -5.000E+00   8.007E+02
   5.826E-06  -8.062E-10   4.773E-09  -5.000E+00   8.007E+02
   5.827E-06  -8.062E-10   4.773E-09  -5.000E+00   8.007E+02
   5.828E-06  -8.062E-10   4.773E-09  -5.000E+00   8.007E+02
   5.829E-06  -8.062E-10   4.773E-09  -5.000E+00   8.007E+02
   5.830E-06  -8.062E-10   4.773E-09  -5.000E+00   8.007E+02
   5.831E-06  -8.062E-10   4.773E-09  -5.000E+00   8.007E+02
   5.832E-06  -8.062E-10   4.773E-09  -5.000E+00   8.007E+02
   5.833E-06  -8.062E-10   4.773E-09  -5.000E+00   8.007E+02
   5.834E-06  -8.062E-10   4.773E-09  -5.000E+00   8.007E+02
   5.835E-06  -8.062E-10   4.773E-09  -5.000E+00   8.007E+02
   5.836E-06  -8.062E-10   4.773E-09  -5.000E+00   8.007E+02
   5.837E-06  -8.062E-10   4.773E-09  -5.000E+00   8.007E+02
   5.838E-06  -8.062E-10   4.773E-09  -5.000E+00   8.007E+02
   5.839E-06  -8.062E-10   4.773E-09  -5.000E+00   8.007E+02
   5.840E-06  -8.062E-10   4.773E-09  -5.000E+00   8.007E+02
   5.841E-06  -8.062E-10   4.773E-09  -5.000E+00   8.007E+02
   5.842E-06  -8.062E-10   4.773E-09  -5.000E+00   8.007E+02
   5.843E-06  -8.062E-10   4.773E-09  -5.000E+00   8.007E+02
   5.844E-06  -8.062E-10   4.773E-09  -5.000E+00   8.007E+02
   5.845E-06  -8.062E-10   4.773E-09  -5.000E+00   8.007E+02
   5.846E-06  -8.062E-10   4.773E-09  -5.000E+00   8.007E+02
   5.847E-06  -8.062E-10   4.773E-09  -5.000E+00   8.007E+02
   5.848E-06  -8.062E-10   4.773E-09  -5.000E+00   8.007E+02
   5.849E-06  -8.062E-10   4.773E-09  -5.000E+00   8.007E+02
   5.850E-06  -8.062E-10   4.773E-09  -5.000E+00   8.007E+02
   5.851E-06  -8.062E-10   4.773E-09  -5.000E+00   8.007E+02
   5.852E-06  -8.062E-10   4.773E-09  -5.000E+00   8.007E+02
   5.853E-06  -8.062E-10   4.773E-09  -5.000E+00   8.007E+02
   5.854E-06  -8.062E-10   4.773E-09  -5.000E+00   8.007E+02
   5.855E-06  -8.062E-10   4.773E-09  -5.000E+00   8.007E+02
   5.856E-06  -8.062E-10   4.773E-09  -5.000E+00   8.007E+02
   5.857E-06  -8.062E-10   4.773E-09  -5.000E+00   8.007E+02
   5.858E-06  -8.062E-10   4.773E-09  -5.000E+00   8.007E+02
   5.859E-06  -8.062E-10   4.773E-09  -5.000E+00   8.007E+02
   5.860E-06  -8.062E-10   4.773E-09  -5.000E+00   8.007E+02
   5.861E-06  -8.062E-10   4.773E-09  -5.000E+00   8.007E+02
   5.862E-06  -8.062E-10   4.773E-09  -5.000E+00   8.007E+02
   5.863E-06  -8.062E-10   4.773E-09  -5.000E+00   8.007E+02
   5.864E-06  -8.062E-10   4.773E-09  -5.000E+00   8.007E+02
   5.865E-06  -8.062E-10   4.773E-09  -5.000E+00   8.007E+02
   5.866E-06  -8.062E-10   4.773E-09  -5.000E+00   8.007E+02
   5.867E-06  -8.062E-10   4.773E-09  -5.000E+00   8.007E+02
   5.868E-06  -8.062E-10   4.773E-09  -5.000E+00   8.007E+02
   5.869E-06  -8.062E-10   4.773E-09  -5.000E+00   8.007E+02
   5.870E-06  -8.062E-10   4.773E-09  -5.000E+00   8.007E+02
   5.871E-06  -8.062E-10   4.773E-09  -5.000E+00   8.007E+02
   5.872E-06  -8.062E-10   4.773E-09  -5.000E+00   8.007E+02
   5.873E-06  -8.062E-10   4.773E-09  -5.000E+00   8.007E+02
   5.874E-06  -8.062E-10   4.773E-09  -5.000E+00   8.007E+02
   5.875E-06  -8.062E-10   4.773E-09  -5.000E+00   8.007E+02
   5.876E-06  -8.062E-10   4.773E-09  -5.000E+00   8.007E+02
   5.877E-06  -8.062E-10   4.773E-09  -5.000E+00   8.007E+02
   5.878E-06  -8.062E-10   4.773E-09  -5.000E+00   8.007E+02
   5.879E-06  -8.062E-10   4.773E-09  -5.000E+00   8.007E+02
   5.880E-06  -8.062E-10   4.773E-09  -5.000E+00   8.007E+02
   5.881E-06  -8.062E-10   4.773E-09  -5.000E+00   8.007E+02
   5.882E-06  -8.062E-10   4.773E-09  -5.000E+00   8.007E+02
   5.883E-06  -8.062E-10   4.773E-09  -5.000E+00   8.007E+02
   5.884E-06  -8.062E-10   4.773E-09  -5.000E+00   8.007E+02
   5.885E-06  -8.062E-10   4.773E-09  -5.000E+00   8.007E+02
   5.886E-06  -8.062E-10   4.773E-09  -5.000E+00   8.007E+02
   5.887E-06  -8.062E-10   4.773E-09  -5.000E+00   8.007E+02
   5.888E-06  -8.062E-10   4.773E-09  -5.000E+00   8.007E+02
   5.889E-06  -8.062E-10   4.773E-09  -5.000E+00   8.007E+02
   5.890E-06  -8.062E-10   4.773E-09  -5.000E+00   8.007E+02
   5.891E-06  -8.062E-10   4.773E-09  -5.000E+00   8.007E+02
   5.892E-06  -8.062E-10   4.773E-09  -5.000E+00   8.007E+02
   5.893E-06  -8.062E-10   4.773E-09  -5.000E+00   8.007E+02
   5.894E-06  -8.062E-10   4.773E-09  -5.000E+00   8.007E+02
   5.895E-06  -8.062E-10   4.773E-09  -5.000E+00   8.007E+02
   5.896E-06  -8.062E-10   4.773E-09  -5.000E+00   8.007E+02
   5.897E-06  -8.062E-10   4.773E-09  -5.000E+00   8.007E+02
   5.898E-06  -8.062E-10   4.773E-09  -5.000E+00   8.007E+02
   5.899E-06  -8.062E-10   4.773E-09  -5.000E+00   8.007E+02
   5.900E-06  -8.062E-10   4.773E-09  -5.000E+00   8.007E+02
   5.901E-06  -8.062E-10   4.773E-09  -5.000E+00   8.007E+02
   5.902E-06  -8.062E-10   4.773E-09  -5.000E+00   8.007E+02
   5.903E-06  -8.062E-10   4.773E-09  -5.000E+00   8.007E+02
   5.904E-06  -8.062E-10   4.773E-09  -5.000E+00   8.007E+02
   5.905E-06  -8.062E-10   4.773E-09  -5.000E+00   8.007E+02
   5.906E-06  -8.062E-10   4.773E-09  -5.000E+00   8.007E+02
   5.907E-06  -8.062E-10   4.773E-09  -5.000E+00   8.007E+02
   5.908E-06  -8.062E-10   4.773E-09  -5.000E+00   8.007E+02
   5.909E-06  -8.062E-10   4.773E-09  -5.000E+00   8.007E+02
   5.910E-06  -8.062E-10   4.773E-09  -5.000E+00   8.007E+02
   5.911E-06  -8.062E-10   4.773E-09  -5.000E+00   8.007E+02
   5.912E-06  -8.062E-10   4.773E-09  -5.000E+00   8.007E+02
   5.913E-06  -8.062E-10   4.773E-09  -5.000E+00   8.007E+02
   5.914E-06  -8.062E-10   4.773E-09  -5.000E+00   8.007E+02
   5.915E-06  -8.062E-10   4.773E-09  -5.000E+00   8.007E+02
   5.916E-06  -8.062E-10   4.773E-09  -5.000E+00   8.007E+02
   5.917E-06  -8.062E-10   4.773E-09  -5.000E+00   8.007E+02
   5.918E-06  -8.062E-10   4.773E-09  -5.000E+00   8.007E+02
   5.919E-06  -8.062E-10   4.773E-09  -5.000E+00   8.007E+02
   5.920E-06  -8.062E-10   4.773E-09  -5.000E+00   8.007E+02
   5.921E-06  -8.062E-10   4.773E-09  -5.000E+00   8.007E+02
   5.922E-06  -8.062E-10   4.773E-09  -5.000E+00   8.007E+02
   5.923E-06  -8.062E-10   4.773E-09  -5.000E+00   8.007E+02
   5.924E-06  -8.062E-10   4.773E-09  -5.000E+00   8.007E+02
   5.925E-06  -8.062E-10   4.773E-09  -5.000E+00   8.007E+02
   5.926E-06  -8.062E-10   4.773E-09  -5.000E+00   8.007E+02
   5.927E-06  -8.062E-10   4.773E-09  -5.000E+00   8.007E+02
   5.928E-06  -8.062E-10   4.773E-09  -5.000E+00   8.007E+02
   5.929E-06  -8.062E-10   4.773E-09  -5.000E+00   8.007E+02
   5.930E-06  -8.062E-10   4.773E-09  -5.000E+00   8.007E+02
   5.931E-06  -8.062E-10   4.773E-09  -5.000E+00   8.007E+02
   5.932E-06  -8.062E-10   4.773E-09  -5.000E+00   8.007E+02
   5.933E-06  -8.062E-10   4.773E-09  -5.000E+00   8.007E+02
   5.934E-06  -8.062E-10   4.773E-09  -5.000E+00   8.007E+02
   5.935E-06  -8.062E-10   4.773E-09  -5.000E+00   8.007E+02
   5.936E-06  -8.062E-10   4.773E-09  -5.000E+00   8.007E+02
   5.937E-06  -8.062E-10   4.773E-09  -5.000E+00   8.007E+02
   5.938E-06  -8.062E-10   4.773E-09  -5.000E+00   8.007E+02
   5.939E-06  -8.062E-10   4.773E-09  -5.000E+00   8.007E+02
   5.940E-06  -8.062E-10   4.773E-09  -5.000E+00   8.007E+02
   5.941E-06  -8.062E-10   4.773E-09  -5.000E+00   8.007E+02
   5.942E-06  -8.062E-10   4.773E-09  -5.000E+00   8.007E+02
   5.943E-06  -8.062E-10   4.773E-09  -5.000E+00   8.007E+02
   5.944E-06  -8.062E-10   4.773E-09  -5.000E+00   8.007E+02
   5.945E-06  -8.062E-10   4.773E-09  -5.000E+00   8.007E+02
   5.946E-06  -8.062E-10   4.773E-09  -5.000E+00   8.007E+02
   5.947E-06  -8.062E-10   4.773E-09  -5.000E+00   8.007E+02
   5.948E-06  -8.062E-10   4.773E-09  -5.000E+00   8.007E+02
   5.949E-06  -8.062E-10   4.773E-09  -5.000E+00   8.007E+02
   5.950E-06  -8.062E-10   4.773E-09  -5.000E+00   8.007E+02
   5.951E-06  -8.062E-10   4.773E-09  -5.000E+00   8.007E+02
   5.952E-06  -8.062E-10   4.773E-09  -5.000E+00   8.007E+02
   5.953E-06  -8.062E-10   4.773E-09  -5.000E+00   8.007E+02
   5.954E-06  -8.062E-10   4.773E-09  -5.000E+00   8.007E+02
   5.955E-06  -8.062E-10   4.773E-09  -5.000E+00   8.007E+02
   5.956E-06  -8.062E-10   4.773E-09  -5.000E+00   8.007E+02
   5.957E-06  -8.062E-10   4.773E-09  -5.000E+00   8.007E+02
   5.958E-06  -8.062E-10   4.773E-09  -5.000E+00   8.007E+02
   5.959E-06  -8.062E-10   4.773E-09  -5.000E+00   8.007E+02
   5.960E-06  -8.062E-10   4.773E-09  -5.000E+00   8.007E+02
   5.961E-06  -8.062E-10   4.773E-09  -5.000E+00   8.007E+02
   5.962E-06  -8.062E-10   4.773E-09  -5.000E+00   8.007E+02
   5.963E-06  -8.062E-10   4.773E-09  -5.000E+00   8.007E+02
   5.964E-06  -8.062E-10   4.773E-09  -5.000E+00   8.007E+02
   5.965E-06  -8.062E-10   4.773E-09  -5.000E+00   8.007E+02
   5.966E-06  -8.062E-10   4.773E-09  -5.000E+00   8.007E+02
   5.967E-06  -8.062E-10   4.773E-09  -5.000E+00   8.007E+02
   5.968E-06  -8.062E-10   4.773E-09  -5.000E+00   8.007E+02
   5.969E-06  -8.062E-10   4.773E-09  -5.000E+00   8.007E+02
   5.970E-06  -8.062E-10   4.773E-09  -5.000E+00   8.007E+02
   5.971E-06  -8.062E-10   4.773E-09  -5.000E+00   8.007E+02
   5.972E-06  -8.062E-10   4.773E-09  -5.000E+00   8.007E+02
   5.973E-06  -8.062E-10   4.773E-09  -5.000E+00   8.007E+02
   5.974E-06  -8.062E-10   4.773E-09  -5.000E+00   8.007E+02
   5.975E-06  -8.062E-10   4.773E-09  -5.000E+00   8.007E+02
   5.976E-06  -8.062E-10   4.773E-09  -5.000E+00   8.007E+02
   5.977E-06  -8.062E-10   4.773E-09  -5.000E+00   8.007E+02
   5.978E-06  -8.062E-10   4.773E-09  -5.000E+00   8.007E+02
   5.979E-06  -8.062E-10   4.773E-09  -5.000E+00   8.007E+02
   5.980E-06  -8.062E-10   4.773E-09  -5.000E+00   8.007E+02
   5.981E-06  -8.062E-10   4.773E-09  -5.000E+00   8.007E+02
   5.982E-06  -8.062E-10   4.773E-09  -5.000E+00   8.007E+02
   5.983E-06  -8.062E-10   4.773E-09  -5.000E+00   8.007E+02
   5.984E-06  -8.062E-10   4.773E-09  -5.000E+00   8.007E+02
   5.985E-06  -8.062E-10   4.773E-09  -5.000E+00   8.007E+02
   5.986E-06  -8.062E-10   4.773E-09  -5.000E+00   8.007E+02
   5.987E-06  -8.062E-10   4.773E-09  -5.000E+00   8.007E+02
   5.988E-06  -8.062E-10   4.773E-09  -5.000E+00   8.007E+02
   5.989E-06  -8.062E-10   4.773E-09  -5.000E+00   8.007E+02
   5.990E-06  -8.062E-10   4.773E-09  -5.000E+00   8.007E+02
   5.991E-06  -8.062E-10   4.773E-09  -5.000E+00   8.007E+02
   5.992E-06  -8.062E-10   4.773E-09  -5.000E+00   8.007E+02
   5.993E-06  -8.062E-10   4.773E-09  -5.000E+00   8.007E+02
   5.994E-06  -8.062E-10   4.773E-09  -5.000E+00   8.007E+02
   5.995E-06  -8.062E-10   4.773E-09  -5.000E+00   8.007E+02
   5.996E-06  -8.062E-10   4.773E-09  -5.000E+00   8.007E+02
   5.997E-06  -8.062E-10   4.773E-09  -5.000E+00   8.007E+02
   5.998E-06  -8.062E-10   4.773E-09  -5.000E+00   8.007E+02
   5.999E-06  -8.062E-10   4.773E-09  -5.000E+00   8.007E+02
   6.000E-06  -8.062E-10   4.773E-09  -5.000E+00   8.007E+02




          JOB CONCLUDED

**** 11/22/16 14:04:28 ***** PSpice 16.6.0 (October 2012) ***** ID# 0 ********

  ***** MCNUTT - HEFNER SiC POWER MOSFET MODEL *****


 ****     JOB STATISTICS SUMMARY


******************************************************************************



  Total job time (using Solver 1)   =        2.13
